*Heading
** Job name: 1-22p5_1p5 Model name: 1-22p5
** Generated by: Abaqus/CAE 2022
*Preprint, echo=NO, model=NO, history=NO, contact=NO
**
** PARTS
**
*Part, name=Plate
*Node
      1,        -150.,   62.3713722,           0.
      2,        -150.,        -150.,           0.
      3,  -11.4805031,  -27.7163868,           0.
      4,  -62.3713722,        -150.,           0.
      5,  -27.7163868,   11.4805031,           0.
      6, -0.065328151, -0.0270598046,           0.
      7, -0.0270598046,  0.065328151,           0.
      8,   11.4805031,   27.7163868,           0.
      9,   62.3713722,         150.,           0.
     10,        -150.,         150.,           0.
     11,         150.,  -62.3713722,           0.
     12,   27.7163868,  -11.4805031,           0.
     13, 0.0270598046, -0.065328151,           0.
     14,         150.,        -150.,           0.
     15,         150.,         150.,           0.
     16,  0.065328151, 0.0270598046,           0.
     17,        -150.,   60.3095131,           0.
     18,        -150.,   58.2476578,           0.
     19,        -150.,   56.1857986,           0.
     20,        -150.,   54.1239395,           0.
** ... 42697 like lines cut
*Element, type=S4R
    1,     1,    17,  1307,   402
    2,    17,    18,  1308,  1307
    3,    18,    19,  1309,  1308
    4,    19,    20,  1310,  1309
    5,    20,    21,  1311,  1310
    6,    21,    22,  1312,  1311
    7,    22,    23,  1313,  1312
    8,    23,    24,  1314,  1313
    9,    24,    25,  1315,  1314
   10,    25,    26,  1316,  1315
   11,    26,    27,  1317,  1316
   12,    27,    28,  1318,  1317
   13,    28,    29,  1319,  1318
   14,    29,    30,  1320,  1319
   15,    30,    31,  1321,  1320
   16,    31,    32,  1322,  1321
   17,    32,    33,  1323,  1322
   18,    33,    34,  1324,  1323
   19,    34,    35,  1325,  1324
   20,    35,    36,  1326,  1325
** ... 42209 like lines cut
*Nset, nset=PlateShell, generate
     1,  42717,      1
*Elset, elset=PlateShell, generate
     1,  42229,      1
*Elset, elset=_LoadSurface_SNEG, internal, generate
     1,  42229,      1
*Surface, type=ELEMENT, name=LoadSurface
_LoadSurface_SNEG, SNEG
** Section: Section-2
*Shell Section, elset=PlateShell, material=<MAT>, controls=EC-1
1.5, 5
*Transverse Shear Stiffness
72916.7, 72916.7, 0.
*End Part
**  
**
** ASSEMBLY
**
*Assembly, name=Assembly
**  
*Instance, name=Plate-1, part=Plate
*End Instance
**  
*Nset, nset=ShellBoundary, instance=Plate-1
    1,    2,    4,    9,   10,   11,   14,   15,   17,   18,   19,   20,   21,   22,   23,   24
   25,   26,   27,   28,   29,   30,   31,   32,   33,   34,   35,   36,   37,   38,   39,   40
   41,   42,   43,   44,   45,   46,   47,   48,   49,   50,   51,   52,   53,   54,   55,   56
   57,   58,   59,   60,   61,   62,   63,   64,   65,   66,   67,   68,   69,   70,   71,   72
   73,   74,   75,   76,   77,   78,   79,   80,   81,   82,   83,   84,   85,   86,   87,   88
   89,   90,   91,   92,   93,   94,   95,   96,   97,   98,   99,  100,  101,  102,  103,  104
  105,  106,  107,  108,  109,  110,  111,  112,  113,  114,  115,  116,  117,  118,  119,  120
  121,  122,  123,  124,  125,  126,  127,  128,  129,  130,  131,  132,  133,  134,  135,  136
  137,  138,  139,  140,  141,  142,  143,  144,  145,  146,  147,  148,  149,  150,  151,  152
  153,  154,  155,  156,  157,  158,  159,  160,  161,  162,  163,  164,  165,  166,  167,  168
  169,  170,  171,  172,  173,  174,  175,  176,  177,  178,  179,  180,  181,  182,  183,  184
  185,  186,  187,  188,  189,  190,  191,  192,  193,  194,  195,  196,  197,  198,  199,  200
  201,  202,  203,  204,  205,  206,  207,  208,  209,  210,  211,  212,  213,  214,  215,  216
  217,  218,  219,  541,  542,  543,  544,  545,  546,  547,  548,  549,  550,  551,  552,  553
  554,  555,  556,  557,  558,  559,  560,  561,  562,  563,  564,  565,  566,  567,  568,  569
  570,  571,  572,  573,  574,  575,  576,  577,  578,  579,  580,  581,  582,  583,  584,  585
  586,  587,  588,  589,  590,  591,  592,  593,  594,  595,  596,  597,  598,  599,  600,  601
  602,  603,  604,  605,  606,  607,  608,  609,  610,  611,  612,  613,  614,  615,  616,  617
  618,  619,  620,  621,  622,  623,  624,  625,  626,  627,  628,  629,  630,  631,  632,  633
  634,  635,  636,  637,  638,  639,  640,  641,  642,  643,  644,  645,  646,  647,  648,  649
** ... 32 like lines cut
*Elset, elset=ShellBoundary, instance=Plate-1
     1,     2,     3,     4,     5,     6,     7,     8,     9,    10,    11,    12,    13,    14,    15,    16
    17,    18,    19,    20,    21,    22,    23,    24,    25,    26,    27,    28,    29,    30,    31,    32
    33,    34,    35,    36,    37,    38,    39,    40,    41,    42,    43,    44,    45,    46,    47,    48
    49,    50,    51,    52,    53,    54,    55,    56,    57,    58,    59,    60,    61,    62,    63,    64
    65,    66,    67,    68,    69,    70,    71,    72,    73,    74,    75,    76,    77,    78,    79,    80
    81,    82,    83,    84,    85,    86,    87,    88,    89,    90,    91,    92,    93,    94,    95,    96
    97,    98,    99,   100,   101,   102,   103,   206,   309,   412,   515,   618,   721,   824,   927,  1030
  1133,  1236,  1339,  1442,  1545,  1648,  1751,  1854,  1957,  2060,  2163,  2266,  2369,  2472,  2575,  2678
  2781,  2884,  2987,  3090,  3193,  3296,  3399,  3502,  3605,  3708,  3811,  3914,  4017,  4120,  4223,  4326
  4429,  4532,  4635,  4738,  4841,  4944,  5047,  5150,  5253,  5356,  5459,  5562,  5665,  5768,  5871,  5974
  6077,  6180,  6283,  6386,  6489,  6592,  6695,  6798,  6901,  7004,  7107,  7210,  7313,  7416,  7519,  7622
  7725,  7828,  7931,  8034,  8137,  8240,  8343,  8446,  8549,  8652,  8755,  8858,  8961,  9064,  9167,  9270
  9373,  9476,  9579,  9682,  9785,  9888,  9991, 10094, 10197, 10300, 10403, 10506, 10507, 10611, 10715, 10819
 10923, 11027, 11131, 11235, 11339, 11443, 11547, 11651, 11755, 11859, 11963, 12067, 12171, 12275, 12379, 12483
 12587, 12691, 12795, 12899, 13003, 13107, 13211, 13315, 13419, 13523, 13627, 13731, 13835, 13939, 14043, 14147
 14251, 14355, 14459, 14563, 14667, 14771, 14875, 14979, 15083, 15187, 15291, 15395, 15499, 15603, 15707, 15811
 15915, 16019, 16123, 16227, 16331, 16435, 16539, 16643, 16747, 16851, 16955, 17059, 17163, 17267, 17371, 17475
 17579, 17683, 17787, 17891, 17995, 18099, 18203, 18307, 18411, 18515, 18619, 18723, 18827, 18931, 19035, 19139
 19243, 19347, 19451, 19555, 19659, 19763, 19867, 19971, 20075, 20179, 20283, 20387, 20491, 20595, 20699, 20803
 20907, 21011, 21012, 21013, 21014, 21015, 21016, 21017, 21018, 21019, 21020, 21021, 21022, 21023, 21024, 21025
** ... 32 like lines cut
*End Assembly
** 
** ELEMENT CONTROLS
** 
*Section Controls, name=EC-1, hourglass=ENHANCED, second order accuracy=YES
1., 1., 1.
*Amplitude, name=Driver10Bar
             0.,              0.,          0.0001,          0.4462, 0.00147931034482759, 0.403353179334616, 0.00285862068965517, 0.364021421197428
0.00423793103448276, 0.327938361800707, 0.00561724137931035, 0.294856876200396, 0.00699655172413793, 0.264547732713157, 0.00837586206896552, 0.236798339297337
0.0097551724137931, 0.211411575720852, 0.0111344827586207, 0.188204705748233, 0.0125137931034483, 0.167008363961625, 0.0138931034482759, 0.147665612187893
0.0152724137931034, 0.130031060837949, 0.016651724137931, 0.113970050776412, 0.0180310344827586, 0.0993578916312382, 0.0194103448275862, 0.0860791527252794
0.0207896551724138, 0.0740270030661679, 0.0221689655172414, 0.0631025970685725, 0.023548275862069, 0.0532145029048911, 0.0249275862068966, 0.0442781705878096
0.0263068965517241, 0.0362154370818443, 0.0276862068965517, 0.0289540659218805, 0.0290655172413793, 0.0224273189856682, 0.0304448275862069, 0.0165735582250075
0.0318241379310345, 0.0113358753076885, 0.0332034482758621, 0.00666174725982981, 0.0345827586206897, 0.00250271632671636
*Amplitude, name=Driver15Bar
             0.,              0.,          0.0001,          0.6066, 0.000326130653266332, 0.597255606871735, 0.000552261306532663, 0.588039538224459
0.000778391959798995, 0.578950140015279, 0.00100452261306533, 0.569985778680351, 0.00123065326633166, 0.561144840888287, 0.00145678391959799, 0.552425733296464
0.00168291457286432, 0.543826882310219, 0.00190904522613065, 0.535346733844879, 0.00213517587939699, 0.526983753090603, 0.00236130653266332, 0.518736424279999
0.00258743718592965, 0.510603250458486, 0.00281356783919598, 0.502582753257369, 0.00303969849246231, 0.494673472669594, 0.00326582914572864, 0.486873966828152
0.00349195979899498, 0.479182811787102, 0.00371809045226131, 0.471598601305186, 0.00394422110552764, 0.464119946631993, 0.00417035175879397, 0.456745476296665
0.0043964824120603, 0.449473835899089, 0.00462261306532663, 0.442303687903566, 0.00484874371859297, 0.435233711434919, 0.0050748743718593, 0.428262602077018
0.00530100502512563, 0.421389071673683, 0.00552713567839196, 0.414611848131946, 0.00575326633165829, 0.407929675227649, 0.00597939698492462, 0.401341312413332
0.00620552763819096, 0.39484553462841, 0.00643165829145729, 0.388441132111588, 0.00665778894472362, 0.382126910215507, 0.00688391959798995, 0.375901689223581
0.00711005025125628, 0.369764304169008, 0.00733618090452261, 0.363713604655925, 0.00756231155778894, 0.357748454682691, 0.00778844221105528, 0.351867732467255
0.00801457286432161, 0.346070330274603, 0.00824070351758794, 0.340355154246253, 0.00846683417085427, 0.334721124231771, 0.0086929648241206, 0.329167173622288
0.00891909547738693, 0.323692249185992, 0.00914522613065327, 0.318295310905579, 0.0093713567839196, 0.312975331817627, 0.00959748743718593, 0.307731297853887
0.00982361809045226, 0.302562207684454, 0.0100497487437186, 0.2974670725628, 0.0102758793969849, 0.292444916172661, 0.0105020100502513, 0.287494774476728
0.0107281407035176, 0.282615695567152, 0.0109542713567839, 0.277806739517819, 0.0111804020100503, 0.273066978238387, 0.0114065326633166, 0.268395495330055
0.0116326633165829, 0.263791385943056, 0.0118587939698492, 0.259253756635837, 0.0120849246231156, 0.254781725235929, 0.0123110552763819, 0.250374420702459
0.0125371859296482, 0.246030982990315, 0.0127633165829146, 0.241750562915915, 0.0129894472361809, 0.237532322024587, 0.0132155778894472, 0.233375432459526
0.0134417085427136, 0.229279076832312, 0.0136678391959799, 0.225242448094972, 0.0138939698492462, 0.221264749413574, 0.0141201005025126, 0.217345194043321
0.0143462311557789, 0.213483005205142, 0.0145723618090452, 0.209677415963749, 0.0147984924623116, 0.20592766910716, 0.0150246231155779, 0.202233017027652
0.0152507537688442, 0.198592721604139, 0.0154768844221106, 0.195006054085953, 0.0157030150753769, 0.191472294978023, 0.0159291457286432, 0.187990733927409
0.0161552763819096, 0.184560669611211, 0.0163814070351759, 0.181181409625806, 0.0166075376884422, 0.177852270377416, 0.0168336683417085, 0.174572576973979
0.0170597989949749, 0.171341663118321, 0.0172859296482412, 0.168158871002604, 0.0175120603015075, 0.165023551204031, 0.0177381909547739, 0.161935062581814
** ... 29 like lines cut
** 
** MATERIALS
** 
*Material, name=AA6016_T4
*Density
 7.85e-09,
*Elastic
70000., 0.3
*Time Points, name=TimePoints-1, GENERATE
0., 0.0001, 0.0001
0.0001, 0.002, 0.0001
** ----------------------------------------------------------------
** 
** STEP: Load
** 
*Step, name=Load, nlgeom=YES
*Dynamic, Explicit
, 0.02
*Bulk Viscosity
0.06, 1.2
** 
** BOUNDARY CONDITIONS
** 
** Name: FixedEnd Type: Symmetry/Antisymmetry/Encastre
*Boundary
ShellBoundary, ENCASTRE
** 
** LOADS
** 
** Name: Pressure   Type: Pressure
*Dsload, amplitude=<AMP>
Plate-1.LoadSurface, PNU, 1.
** 
** OUTPUT REQUESTS
** 
*Restart, write, number interval=1, time marks=NO
** 
** FIELD OUTPUT: F-Output-1
** 
*Output, field, time points=TimePoints-1
*Node Output
U, 
*Element Output, directions=YES
MISES, P, S, SDV, STATUS, TRIAX
** 
** HISTORY OUTPUT: H-Output-1
** 
*Output, history, variable=PRESELECT
*End Step
