*Heading
** Job name: 1-HV_3p0 Model name: 1-HV
** Generated by: Abaqus/CAE 2022
*Preprint, echo=NO, model=NO, history=NO, contact=NO
**
** PARTS
**
*Part, name=Plate
*Node
      1,         150.,           0.,           0.
      2,         150.,         150.,           0.
      3,           0.,          30.,           0.
      4,           0.,         150.,           0.
      5,          30.,           0.,           0.
      6, 0.0500000007, 0.0500000007,           0.
      7, 0.0500000007, -0.0500000007,           0.
      8,           0.,         -30.,           0.
      9,           0.,        -150.,           0.
     10,         150.,        -150.,           0.
     11, -0.0500000007, -0.0500000007,           0.
     12,         -30.,           0.,           0.
     13,        -150.,           0.,           0.
     14,        -150.,        -150.,           0.
     15, -0.0500000007, 0.0500000007,           0.
     16,        -150.,         150.,           0.
     17,         150.,           3.,           0.
     18,         150.,           6.,           0.
     19,         150.,           9.,           0.
     20,         150.,          12.,           0.
** ... 10220 like lines cut
*Element, type=S4R
   1,    1,   17,  637,  201
   2,   17,   18,  638,  637
   3,   18,   19,  639,  638
   4,   19,   20,  640,  639
   5,   20,   21,  641,  640
   6,   21,   22,  642,  641
   7,   22,   23,  643,  642
   8,   23,   24,  644,  643
   9,   24,   25,  645,  644
  10,   25,   26,  646,  645
  11,   26,   27,  647,  646
  12,   27,   28,  648,  647
  13,   28,   29,  649,  648
  14,   29,   30,  650,  649
  15,   30,   31,  651,  650
  16,   31,   32,  652,  651
  17,   32,   33,  653,  652
  18,   33,   34,  654,  653
  19,   34,   35,  655,  654
  20,   35,   36,  656,  655
** ... 9980 like lines cut
*Nset, nset=PlateShell, generate
     1,  10240,      1
*Elset, elset=PlateShell, generate
     1,  10000,      1
*Elset, elset=_LoadSurface_SNEG, internal, generate
     1,  10000,      1
*Surface, type=ELEMENT, name=LoadSurface
_LoadSurface_SNEG, SNEG
** Section: Section-2
*Shell Section, elset=PlateShell, material=<MAT>, controls=EC-1
1.5, 5
*Transverse Shear Stiffness
72916.7, 72916.7, 0.
*End Part
**  
**
** ASSEMBLY
**
*Assembly, name=Assembly
**  
*Instance, name=Plate-1, part=Plate
*End Instance
**  
*Nset, nset=ShellBoundary, instance=Plate-1
   1,   2,   4,   9,  10,  13,  14,  16,  17,  18,  19,  20,  21,  22,  23,  24
  25,  26,  27,  28,  29,  30,  31,  32,  33,  34,  35,  36,  37,  38,  39,  40
  41,  42,  43,  44,  45,  46,  47,  48,  49,  50,  51,  52,  53,  54,  55,  56
  57,  58,  59,  60,  61,  62,  63,  64,  65,  66,  67,  68,  69,  70,  71,  72
  73,  74,  75,  76,  77,  78,  79,  80,  81,  82,  83,  84,  85,  86,  87,  88
  89,  90,  91,  92,  93,  94,  95,  96,  97,  98,  99, 100, 101, 102, 103, 104
 105, 106, 107, 108, 109, 110, 111, 112, 113, 114, 268, 269, 270, 271, 272, 273
 274, 275, 276, 277, 278, 279, 280, 281, 282, 283, 284, 285, 286, 287, 288, 289
 290, 291, 292, 293, 294, 295, 296, 297, 298, 299, 300, 301, 302, 303, 304, 305
 306, 307, 308, 309, 310, 311, 312, 313, 314, 315, 316, 317, 318, 319, 320, 321
 322, 323, 324, 325, 326, 327, 328, 329, 330, 331, 332, 333, 334, 335, 336, 337
 338, 339, 340, 341, 342, 343, 344, 345, 346, 347, 348, 349, 350, 351, 352, 353
 354, 355, 356, 357, 358, 359, 360, 361, 362, 363, 364, 365, 423, 424, 425, 426
 427, 428, 429, 430, 431, 432, 433, 434, 435, 436, 437, 438, 439, 440, 441, 442
 443, 444, 445, 446, 447, 448, 449, 450, 451, 452, 453, 454, 455, 456, 457, 458
 459, 460, 461, 462, 463, 464, 465, 466, 467, 468, 469, 470, 471, 472, 473, 474
 475, 476, 477, 478, 479, 480, 481, 482, 483, 484, 485, 486, 487, 488, 489, 490
 491, 492, 493, 494, 495, 496, 497, 498, 499, 500, 501, 502, 503, 504, 505, 506
 507, 508, 509, 510, 511, 512, 513, 514, 515, 516, 517, 518, 519, 520, 539, 540
 541, 542, 543, 544, 545, 546, 547, 548, 549, 550, 551, 552, 553, 554, 555, 556
** ... 5 like lines cut
*Elset, elset=ShellBoundary, instance=Plate-1
     1,     2,     3,     4,     5,     6,     7,     8,     9,    10,    11,    12,    13,    14,    15,    16
    17,    18,    19,    20,    21,    22,    23,    24,    25,    26,    27,    28,    29,    30,    31,    32
    33,    34,    35,    36,    37,    38,    39,    40,    41,    42,    43,    44,    45,    46,    47,    48
    49,    50,   100,   150,   200,   250,   300,   350,   400,   450,   500,   550,   600,   650,   700,   750
   800,   850,   900,   950,  1000,  1050,  1100,  1150,  1200,  1250,  1300,  1350,  1400,  1450,  1500,  1550
  1600,  1650,  1700,  1750,  1800,  1850,  1900,  1950,  2000,  2050,  2100,  2150,  2200,  2250,  2300,  2350
  2400,  2450,  2500,  2501,  2551,  2601,  2651,  2701,  2751,  2801,  2851,  2901,  2951,  3001,  3051,  3101
  3151,  3201,  3251,  3301,  3351,  3401,  3451,  3501,  3551,  3601,  3651,  3701,  3751,  3801,  3851,  3901
  3951,  4001,  4051,  4101,  4151,  4201,  4251,  4301,  4351,  4401,  4451,  4501,  4551,  4601,  4651,  4701
  4751,  4801,  4851,  4901,  4951,  4952,  4953,  4954,  4955,  4956,  4957,  4958,  4959,  4960,  4961,  4962
  4963,  4964,  4965,  4966,  4967,  4968,  4969,  4970,  4971,  4972,  4973,  4974,  4975,  4976,  4977,  4978
  4979,  4980,  4981,  4982,  4983,  4984,  4985,  4986,  4987,  4988,  4989,  4990,  4991,  4992,  4993,  4994
  4995,  4996,  4997,  4998,  4999,  5000,  5001,  5051,  5101,  5151,  5201,  5251,  5301,  5351,  5401,  5451
  5501,  5551,  5601,  5651,  5701,  5751,  5801,  5851,  5901,  5951,  6001,  6051,  6101,  6151,  6201,  6251
  6301,  6351,  6401,  6451,  6501,  6551,  6601,  6651,  6701,  6751,  6801,  6851,  6901,  6951,  7001,  7051
  7101,  7151,  7201,  7251,  7301,  7351,  7401,  7451,  7452,  7453,  7454,  7455,  7456,  7457,  7458,  7459
  7460,  7461,  7462,  7463,  7464,  7465,  7466,  7467,  7468,  7469,  7470,  7471,  7472,  7473,  7474,  7475
  7476,  7477,  7478,  7479,  7480,  7481,  7482,  7483,  7484,  7485,  7486,  7487,  7488,  7489,  7490,  7491
  7492,  7493,  7494,  7495,  7496,  7497,  7498,  7499,  7500,  7501,  7551,  7601,  7651,  7701,  7751,  7801
  7851,  7901,  7951,  8001,  8051,  8101,  8151,  8201,  8251,  8301,  8351,  8401,  8451,  8501,  8551,  8601
** ... 5 like lines cut
*End Assembly
** 
** ELEMENT CONTROLS
** 
*Section Controls, name=EC-1, hourglass=ENHANCED, second order accuracy=YES
1., 1., 1.
*Amplitude, name=Driver10Bar
             0.,              0.,          0.0001,          0.4462, 0.00147931034482759, 0.403353179334616, 0.00285862068965517, 0.364021421197428
0.00423793103448276, 0.327938361800707, 0.00561724137931035, 0.294856876200396, 0.00699655172413793, 0.264547732713157, 0.00837586206896552, 0.236798339297337
0.0097551724137931, 0.211411575720852, 0.0111344827586207, 0.188204705748233, 0.0125137931034483, 0.167008363961625, 0.0138931034482759, 0.147665612187893
0.0152724137931034, 0.130031060837949, 0.016651724137931, 0.113970050776412, 0.0180310344827586, 0.0993578916312382, 0.0194103448275862, 0.0860791527252794
0.0207896551724138, 0.0740270030661679, 0.0221689655172414, 0.0631025970685725, 0.023548275862069, 0.0532145029048911, 0.0249275862068966, 0.0442781705878096
0.0263068965517241, 0.0362154370818443, 0.0276862068965517, 0.0289540659218805, 0.0290655172413793, 0.0224273189856682, 0.0304448275862069, 0.0165735582250075
0.0318241379310345, 0.0113358753076885, 0.0332034482758621, 0.00666174725982981, 0.0345827586206897, 0.00250271632671636
*Amplitude, name=Driver15Bar
             0.,              0.,          0.0001,          0.6066, 0.000326130653266332, 0.597255606871735, 0.000552261306532663, 0.588039538224459
0.000778391959798995, 0.578950140015279, 0.00100452261306533, 0.569985778680351, 0.00123065326633166, 0.561144840888287, 0.00145678391959799, 0.552425733296464
0.00168291457286432, 0.543826882310219, 0.00190904522613065, 0.535346733844879, 0.00213517587939699, 0.526983753090603, 0.00236130653266332, 0.518736424279999
0.00258743718592965, 0.510603250458486, 0.00281356783919598, 0.502582753257369, 0.00303969849246231, 0.494673472669594, 0.00326582914572864, 0.486873966828152
0.00349195979899498, 0.479182811787102, 0.00371809045226131, 0.471598601305186, 0.00394422110552764, 0.464119946631993, 0.00417035175879397, 0.456745476296665
0.0043964824120603, 0.449473835899089, 0.00462261306532663, 0.442303687903566, 0.00484874371859297, 0.435233711434919, 0.0050748743718593, 0.428262602077018
0.00530100502512563, 0.421389071673683, 0.00552713567839196, 0.414611848131946, 0.00575326633165829, 0.407929675227649, 0.00597939698492462, 0.401341312413332
0.00620552763819096, 0.39484553462841, 0.00643165829145729, 0.388441132111588, 0.00665778894472362, 0.382126910215507, 0.00688391959798995, 0.375901689223581
0.00711005025125628, 0.369764304169008, 0.00733618090452261, 0.363713604655925, 0.00756231155778894, 0.357748454682691, 0.00778844221105528, 0.351867732467255
0.00801457286432161, 0.346070330274603, 0.00824070351758794, 0.340355154246253, 0.00846683417085427, 0.334721124231771, 0.0086929648241206, 0.329167173622288
0.00891909547738693, 0.323692249185992, 0.00914522613065327, 0.318295310905579, 0.0093713567839196, 0.312975331817627, 0.00959748743718593, 0.307731297853887
0.00982361809045226, 0.302562207684454, 0.0100497487437186, 0.2974670725628, 0.0102758793969849, 0.292444916172661, 0.0105020100502513, 0.287494774476728
0.0107281407035176, 0.282615695567152, 0.0109542713567839, 0.277806739517819, 0.0111804020100503, 0.273066978238387, 0.0114065326633166, 0.268395495330055
0.0116326633165829, 0.263791385943056, 0.0118587939698492, 0.259253756635837, 0.0120849246231156, 0.254781725235929, 0.0123110552763819, 0.250374420702459
0.0125371859296482, 0.246030982990315, 0.0127633165829146, 0.241750562915915, 0.0129894472361809, 0.237532322024587, 0.0132155778894472, 0.233375432459526
0.0134417085427136, 0.229279076832312, 0.0136678391959799, 0.225242448094972, 0.0138939698492462, 0.221264749413574, 0.0141201005025126, 0.217345194043321
0.0143462311557789, 0.213483005205142, 0.0145723618090452, 0.209677415963749, 0.0147984924623116, 0.20592766910716, 0.0150246231155779, 0.202233017027652
0.0152507537688442, 0.198592721604139, 0.0154768844221106, 0.195006054085953, 0.0157030150753769, 0.191472294978023, 0.0159291457286432, 0.187990733927409
0.0161552763819096, 0.184560669611211, 0.0163814070351759, 0.181181409625806, 0.0166075376884422, 0.177852270377416, 0.0168336683417085, 0.174572576973979
0.0170597989949749, 0.171341663118321, 0.0172859296482412, 0.168158871002604, 0.0175120603015075, 0.165023551204031, 0.0177381909547739, 0.161935062581814
** ... 29 like lines cut
** 
** MATERIALS
** 
*Material, name=AA6016_T4
*Density
 7.85e-09,
*Elastic
70000., 0.3
*Time Points, name=TimePoints-1, GENERATE
0., 0.0001, 0.0001
0.0001, 0.002, 0.0001
** ----------------------------------------------------------------
** 
** STEP: Load
** 
*Step, name=Load, nlgeom=YES
*Dynamic, Explicit
, 0.02
*Bulk Viscosity
0.06, 1.2
** 
** BOUNDARY CONDITIONS
** 
** Name: FixedEnd Type: Symmetry/Antisymmetry/Encastre
*Boundary
ShellBoundary, ENCASTRE
** 
** LOADS
** 
** Name: Pressure   Type: Pressure
*Dsload, amplitude=<AMP>
Plate-1.LoadSurface, PNU, 1.
** 
** OUTPUT REQUESTS
** 
*Restart, write, number interval=1, time marks=NO
** 
** FIELD OUTPUT: F-Output-1
** 
*Output, field, time points=TimePoints-1
*Node Output
U, 
*Element Output, directions=YES
MISES, P, S, SDV, STATUS, TRIAX
** 
** HISTORY OUTPUT: H-Output-1
** 
*Output, history, variable=PRESELECT
*End Step
