*Heading
** Job name: 4-45_1p5 Model name: 4-HV
** Generated by: Abaqus/CAE 2022
*Preprint, echo=NO, model=NO, history=NO, contact=NO
**
** PARTS
**
*Part, name=Plate
*Node
      1,        -150.,         -60.,           0.
      2,        -150.,        -150.,           0.
      3,         -60.,         -90.,           0.
      4,         -60.,        -150.,           0.
      5,         -90.,         -60.,           0.
      6,  -60.0499992,  -60.0499992,           0.
      7,          60.,        -150.,           0.
      8,          60.,         -90.,           0.
      9,   59.9500008,  -60.0499992,           0.
     10,          30.,         -60.,           0.
     11,         -30.,         -60.,           0.
     12,  -59.9500008,  -60.0499992,           0.
     13,  -60.0499992,  -59.9500008,           0.
     14,         -60.,         -30.,           0.
     15,         -60.,          30.,           0.
     16,         -90.,          60.,           0.
     17,  -60.0499992,   59.9500008,           0.
     18,        -150.,          60.,           0.
     19,         -60.,         150.,           0.
     20,        -150.,         150.,           0.
** ... 40697 like lines cut
*Element, type=S4R
   1,    1,   45, 1909,  259
   2,   45,   46, 1910, 1909
   3,   46,   47, 1911, 1910
   4,   47,   48, 1912, 1911
   5,   48,   49, 1913, 1912
   6,   49,   50, 1914, 1913
   7,   50,   51, 1915, 1914
   8,   51,   52, 1916, 1915
   9,   52,   53, 1917, 1916
  10,   53,   54, 1918, 1917
  11,   54,   55, 1919, 1918
  12,   55,   56, 1920, 1919
  13,   56,   57, 1921, 1920
  14,   57,   58, 1922, 1921
  15,   58,   59, 1923, 1922
  16,   59,   60, 1924, 1923
  17,   60,   61, 1925, 1924
  18,   61,   62, 1926, 1925
  19,   62,   63, 1927, 1926
  20,   63,   64, 1928, 1927
** ... 39980 like lines cut
*Nset, nset=PlateShell, generate
     1,  40717,      1
*Elset, elset=PlateShell, generate
     1,  40000,      1
*Elset, elset=_LoadSurface_SNEG, internal, generate
     1,  40000,      1
*Surface, type=ELEMENT, name=LoadSurface
_LoadSurface_SNEG, SNEG
** Section: Section-2
*Shell Section, elset=PlateShell, material=<MAT>, controls=EC-1
1.5, 5
*Transverse Shear Stiffness
72916.7, 72916.7, 0.
*End Part
**  
**
** ASSEMBLY
**
*Assembly, name=Assembly
**  
*Instance, name=Plate-1, part=Plate
*End Instance
**  
*Nset, nset=ShellBoundary, instance=Plate-1
    1,    2,    4,    7,   18,   19,   20,   23,   25,   38,   39,   43,   45,   46,   47,   48
   49,   50,   51,   52,   53,   54,   55,   56,   57,   58,   59,   60,   61,   62,   63,   64
   65,   66,   67,   68,   69,   70,   71,   72,   73,   74,   75,   76,   77,   78,   79,   80
   81,   82,   83,   84,   85,   86,   87,   88,   89,   90,   91,   92,   93,   94,   95,   96
   97,   98,   99,  100,  101,  102,  103,  104,  105,  106,  107,  108,  109,  110,  111,  112
  113,  114,  115,  116,  117,  118,  119,  120,  121,  122,  123,  124,  125,  126,  127,  128
  129,  130,  131,  132,  133,  134,  135,  136,  137,  138,  139,  140,  141,  142,  143,  144
  145,  146,  147,  148,  149,  150,  151,  152,  153,  154,  155,  156,  157,  158,  159,  160
  161,  162,  433,  434,  435,  436,  437,  438,  439,  440,  441,  442,  443,  444,  445,  446
  447,  448,  449,  450,  451,  452,  453,  454,  455,  456,  457,  458,  459,  460,  461,  462
  463,  464,  465,  466,  467,  468,  469,  470,  471,  472,  473,  474,  475,  476,  477,  478
  479,  480,  481,  482,  483,  484,  485,  486,  487,  488,  489,  490,  491,  492,  493,  494
  495,  496,  497,  498,  499,  500,  501,  502,  503,  504,  505,  506,  507,  508,  509,  510
  511,  666,  667,  668,  669,  670,  671,  672,  673,  674,  675,  676,  677,  678,  679,  680
  681,  682,  683,  684,  685,  686,  687,  688,  689,  690,  691,  692,  693,  694,  695,  696
  697,  698,  699,  700,  701,  702,  703,  704,  705,  706,  707,  708,  709,  710,  711,  712
  713,  714,  715,  716,  717,  718,  719,  720,  721,  722,  723,  724,  725,  726,  727,  728
  729,  730,  731,  732,  733,  734,  735,  736,  737,  738,  739,  740,  741,  742,  743,  744
  745,  746,  747,  748,  749,  750,  751,  752,  753,  754,  755,  756,  757,  758,  759,  760
  761,  762,  763,  764,  765,  766,  767,  768,  769,  770,  771,  772,  773,  774,  775,  776
** ... 30 like lines cut
*Elset, elset=ShellBoundary, instance=Plate-1
     1,     2,     3,     4,     5,     6,     7,     8,     9,    10,    11,    12,    13,    14,    15,    16
    17,    18,    19,    20,    21,    22,    23,    24,    25,    26,    27,    28,    29,    30,    31,    32
    33,    34,    35,    36,    37,    38,    39,    40,    41,    42,    43,    44,    45,    46,    47,    48
    49,    50,    51,    52,    53,    54,    55,    56,    57,    58,    59,    60,   120,   180,   240,   300
   360,   420,   480,   540,   600,   660,   720,   780,   840,   900,   960,  1020,  1080,  1140,  1200,  1260
  1320,  1380,  1440,  1500,  1560,  1620,  1680,  1740,  1800,  1860,  1920,  1980,  2040,  2100,  2160,  2220
  2280,  2340,  2400,  2460,  2520,  2580,  2640,  2700,  2760,  2820,  2880,  2940,  3000,  3060,  3120,  3180
  3240,  3300,  3360,  3420,  3480,  3540,  3600,  3601,  3661,  3721,  3781,  3841,  3901,  3961,  4021,  4081
  4141,  4201,  4261,  4321,  4381,  4441,  4501,  4561,  4621,  4681,  4741,  4801,  4861,  4921,  4981,  5041
  5101,  5161,  5221,  5281,  5341,  5401,  5461,  5521,  5581,  5641,  5701,  5761,  5821,  5881,  5941,  6001
  6061,  6121,  6181,  6241,  6301,  6361,  6421,  6481,  6541,  6601,  6661,  6721,  6781,  6841,  6901,  6961
  7021,  7081,  7141,  7201,  7261,  7321,  7381,  7441,  7501,  7561,  7621,  7681,  7741,  7801,  7861,  7921
  7981,  8041,  8101,  8161,  8221,  8281,  8341,  8401,  8461,  8521,  8581,  8641,  8701,  8761,  8821,  8881
  8941,  9001,  9061,  9121,  9181,  9241,  9301,  9361,  9421,  9481,  9541,  9601,  9661,  9721,  9781,  9841
  9901,  9961, 10021, 10081, 10141, 10201, 10261, 10321, 10381, 10441, 10501, 10561, 10621, 10681, 10741, 10801
 10861, 10921, 10981, 11041, 11101, 11161, 11221, 11281, 11341, 11401, 11461, 11521, 11581, 11641, 11701, 11761
 11821, 11881, 11941, 12001, 12061, 12121, 12181, 12241, 12301, 12361, 12421, 12481, 12541, 12601, 12661, 12721
 12781, 12841, 12901, 12961, 13021, 13081, 13141, 13201, 13202, 13203, 13204, 13205, 13206, 13207, 13208, 13209
 13210, 13211, 13212, 13213, 13214, 13215, 13216, 13217, 13218, 13219, 13220, 13221, 13222, 13223, 13224, 13225
 13226, 13227, 13228, 13229, 13230, 13231, 13232, 13233, 13234, 13235, 13236, 13237, 13238, 13239, 13240, 13241
** ... 30 like lines cut
*End Assembly
** 
** ELEMENT CONTROLS
** 
*Section Controls, name=EC-1, hourglass=ENHANCED, second order accuracy=YES
1., 1., 1.
*Amplitude, name=Driver10Bar
             0.,              0.,          0.0001,          0.4462, 0.00147931034482759, 0.403353179334616, 0.00285862068965517, 0.364021421197428
0.00423793103448276, 0.327938361800707, 0.00561724137931035, 0.294856876200396, 0.00699655172413793, 0.264547732713157, 0.00837586206896552, 0.236798339297337
0.0097551724137931, 0.211411575720852, 0.0111344827586207, 0.188204705748233, 0.0125137931034483, 0.167008363961625, 0.0138931034482759, 0.147665612187893
0.0152724137931034, 0.130031060837949, 0.016651724137931, 0.113970050776412, 0.0180310344827586, 0.0993578916312382, 0.0194103448275862, 0.0860791527252794
0.0207896551724138, 0.0740270030661679, 0.0221689655172414, 0.0631025970685725, 0.023548275862069, 0.0532145029048911, 0.0249275862068966, 0.0442781705878096
0.0263068965517241, 0.0362154370818443, 0.0276862068965517, 0.0289540659218805, 0.0290655172413793, 0.0224273189856682, 0.0304448275862069, 0.0165735582250075
0.0318241379310345, 0.0113358753076885, 0.0332034482758621, 0.00666174725982981, 0.0345827586206897, 0.00250271632671636
*Amplitude, name=Driver15Bar
             0.,              0.,          0.0001,          0.6066, 0.000326130653266332, 0.597255606871735, 0.000552261306532663, 0.588039538224459
0.000778391959798995, 0.578950140015279, 0.00100452261306533, 0.569985778680351, 0.00123065326633166, 0.561144840888287, 0.00145678391959799, 0.552425733296464
0.00168291457286432, 0.543826882310219, 0.00190904522613065, 0.535346733844879, 0.00213517587939699, 0.526983753090603, 0.00236130653266332, 0.518736424279999
0.00258743718592965, 0.510603250458486, 0.00281356783919598, 0.502582753257369, 0.00303969849246231, 0.494673472669594, 0.00326582914572864, 0.486873966828152
0.00349195979899498, 0.479182811787102, 0.00371809045226131, 0.471598601305186, 0.00394422110552764, 0.464119946631993, 0.00417035175879397, 0.456745476296665
0.0043964824120603, 0.449473835899089, 0.00462261306532663, 0.442303687903566, 0.00484874371859297, 0.435233711434919, 0.0050748743718593, 0.428262602077018
0.00530100502512563, 0.421389071673683, 0.00552713567839196, 0.414611848131946, 0.00575326633165829, 0.407929675227649, 0.00597939698492462, 0.401341312413332
0.00620552763819096, 0.39484553462841, 0.00643165829145729, 0.388441132111588, 0.00665778894472362, 0.382126910215507, 0.00688391959798995, 0.375901689223581
0.00711005025125628, 0.369764304169008, 0.00733618090452261, 0.363713604655925, 0.00756231155778894, 0.357748454682691, 0.00778844221105528, 0.351867732467255
0.00801457286432161, 0.346070330274603, 0.00824070351758794, 0.340355154246253, 0.00846683417085427, 0.334721124231771, 0.0086929648241206, 0.329167173622288
0.00891909547738693, 0.323692249185992, 0.00914522613065327, 0.318295310905579, 0.0093713567839196, 0.312975331817627, 0.00959748743718593, 0.307731297853887
0.00982361809045226, 0.302562207684454, 0.0100497487437186, 0.2974670725628, 0.0102758793969849, 0.292444916172661, 0.0105020100502513, 0.287494774476728
0.0107281407035176, 0.282615695567152, 0.0109542713567839, 0.277806739517819, 0.0111804020100503, 0.273066978238387, 0.0114065326633166, 0.268395495330055
0.0116326633165829, 0.263791385943056, 0.0118587939698492, 0.259253756635837, 0.0120849246231156, 0.254781725235929, 0.0123110552763819, 0.250374420702459
0.0125371859296482, 0.246030982990315, 0.0127633165829146, 0.241750562915915, 0.0129894472361809, 0.237532322024587, 0.0132155778894472, 0.233375432459526
0.0134417085427136, 0.229279076832312, 0.0136678391959799, 0.225242448094972, 0.0138939698492462, 0.221264749413574, 0.0141201005025126, 0.217345194043321
0.0143462311557789, 0.213483005205142, 0.0145723618090452, 0.209677415963749, 0.0147984924623116, 0.20592766910716, 0.0150246231155779, 0.202233017027652
0.0152507537688442, 0.198592721604139, 0.0154768844221106, 0.195006054085953, 0.0157030150753769, 0.191472294978023, 0.0159291457286432, 0.187990733927409
0.0161552763819096, 0.184560669611211, 0.0163814070351759, 0.181181409625806, 0.0166075376884422, 0.177852270377416, 0.0168336683417085, 0.174572576973979
0.0170597989949749, 0.171341663118321, 0.0172859296482412, 0.168158871002604, 0.0175120603015075, 0.165023551204031, 0.0177381909547739, 0.161935062581814
** ... 29 like lines cut
** 
** MATERIALS
** 
*Material, name=AA6016_T4
*Density
 7.85e-09,
*Elastic
70000., 0.3
*Time Points, name=TimePoints-1, GENERATE
0., 0.0001, 0.0001
0.0001, 0.002, 0.0001
** ----------------------------------------------------------------
** 
** STEP: Load
** 
*Step, name=Load, nlgeom=YES
*Dynamic, Explicit
, 0.02
*Bulk Viscosity
0.06, 1.2
** 
** BOUNDARY CONDITIONS
** 
** Name: FixedEnd Type: Symmetry/Antisymmetry/Encastre
*Boundary
ShellBoundary, ENCASTRE
** 
** LOADS
** 
** Name: Pressure   Type: Pressure
*Dsload, amplitude=<AMP>
Plate-1.LoadSurface, PNU, 1.
** 
** OUTPUT REQUESTS
** 
*Restart, write, number interval=1, time marks=NO
** 
** FIELD OUTPUT: F-Output-1
** 
*Output, field, time points=TimePoints-1
*Node Output
U, 
*Element Output, directions=YES
MISES, P, S, SDV, STATUS, TRIAX
** 
** HISTORY OUTPUT: H-Output-1
** 
*Output, history, variable=PRESELECT
*End Step
