*Heading
** Job name: 4-45_3p0 Model name: 4-45
** Generated by: Abaqus/CAE 2022
*Preprint, echo=NO, model=NO, history=NO, contact=NO
**
** PARTS
**
*Part, name=Plate
*Node
      1,         150.,  -30.2300568,           0.
      2,   119.999786,   -0.1295048,           0.
      3,   81.2132034,  -38.7867966,           0.
      4,   81.2132034,  -81.2132034,           0.
      5,   60.0707092,         -60.,           0.
      6,         150.,        -150.,           0.
      7,         150.,     29.77071,           0.
      8,        -150.,   30.2300568,           0.
      9,  -119.999786,    0.1295048,           0.
     10,  -81.2132034,   38.7867966,           0.
     11,  -81.2132034,   81.2132034,           0.
     12,  -60.0707092,          60.,           0.
     13,        -150.,         150.,           0.
     14,        -150.,    -29.77071,           0.
     15,  -30.2300568,        -150.,           0.
     16,   -0.1295048,  -119.999786,           0.
     17,  -38.7867966,  -81.2132034,           0.
     18,  -81.2132034,  -81.2132034,           0.
     19,         -60.,  -60.0707092,           0.
     20,        -150.,        -150.,           0.
** ... 11589 like lines cut
*Element, type=S4R
  1,    1,   50, 1130,  157
  2,   50,   51, 1131, 1130
  3,   51,   52, 1132, 1131
  4,   52,   53, 1133, 1132
  5,   53,   54, 1134, 1133
  6,   54,   55, 1135, 1134
  7,   55,   56, 1136, 1135
  8,   56,   57, 1137, 1136
  9,   57,   58, 1138, 1137
 10,   58,   59, 1139, 1138
 11,   59,   60, 1140, 1139
 12,   60,   61, 1141, 1140
 13,   61,   62, 1142, 1141
 14,   62,   63, 1143, 1142
 15,   63,   64, 1144, 1143
 16,   64,   65, 1145, 1144
 17,   65,   66, 1146, 1145
 18,   66,   67, 1147, 1146
 19,   67,   68, 1148, 1147
 20,   68,   69, 1149, 1148
** ... 11268 like lines cut
*Nset, nset=PlateShell, generate
     1,  11609,      1
*Elset, elset=PlateShell, generate
     1,  11288,      1
*Elset, elset=_LoadSurface_SNEG, internal, generate
     1,  11288,      1
*Surface, type=ELEMENT, name=LoadSurface
_LoadSurface_SNEG, SNEG
** Section: Section-2
*Shell Section, elset=PlateShell, material=<MAT>, controls=EC-1
1.5, 5
*Transverse Shear Stiffness
72916.7, 72916.7, 0.
*End Part
**  
**
** ASSEMBLY
**
*Assembly, name=Assembly
**  
*Instance, name=Plate-1, part=Plate
*End Instance
**  
*Nset, nset=ShellBoundary, instance=Plate-1
    1,    6,    7,    8,   13,   14,   15,   20,   21,   22,   27,   28,  127,  128,  129,  130
  131,  132,  133,  134,  135,  136,  137,  138,  139,  140,  141,  142,  143,  144,  145,  146
  147,  148,  149,  150,  151,  152,  153,  154,  155,  156,  157,  158,  159,  160,  161,  162
  163,  164,  165,  166,  167,  168,  169,  170,  171,  172,  173,  174,  175,  176,  276,  277
  278,  279,  280,  281,  282,  283,  284,  285,  286,  287,  288,  289,  290,  291,  292,  293
  294,  295,  296,  297,  298,  299,  300,  301,  302,  303,  304,  305,  306,  307,  308,  309
  310,  311,  312,  313,  314,  315,  316,  317,  318,  319,  320,  321,  322,  323,  324,  325
  425,  426,  427,  428,  429,  430,  431,  432,  433,  434,  435,  436,  437,  438,  439,  440
  441,  442,  443,  444,  445,  446,  447,  448,  449,  450,  451,  452,  453,  454,  455,  456
  457,  458,  459,  460,  461,  462,  463,  464,  465,  466,  467,  468,  469,  470,  471,  472
  473,  474,  574,  575,  576,  577,  578,  579,  580,  581,  582,  583,  584,  585,  586,  587
  588,  589,  590,  591,  592,  593,  594,  595,  596,  597,  598,  599,  600,  601,  602,  603
  604,  605,  606,  607,  608,  609,  610,  611,  612,  613,  614,  615,  616,  617,  618,  619
  620,  621,  622,  623,  646,  647,  648,  649,  650,  651,  652,  653,  654,  655,  656,  657
  658,  659,  660,  661,  662,  663,  664,  665,  666,  667,  668,  669,  670,  671,  672,  673
  674,  675,  804,  805,  806,  807,  808,  809,  810,  811,  812,  813,  814,  815,  816,  817
  818,  819,  820,  821,  822,  823,  824,  825,  826,  827,  828,  829,  830,  831,  832,  833
 1001, 1002, 1003, 1004, 1005, 1006, 1007, 1008, 1009, 1010, 1011, 1012, 1013, 1014, 1015, 1016
 1017, 1018, 1019, 1020, 1021, 1022, 1023, 1024, 1025, 1026, 1027, 1028, 1029, 1030, 1046, 1047
 1048, 1049, 1050, 1051, 1052, 1053, 1054, 1055, 1056, 1057, 1058, 1059, 1060, 1061, 1062, 1063
 1064, 1065, 1066, 1067, 1068, 1069, 1070, 1071, 1072, 1073, 1074, 1075
*Elset, elset=ShellBoundary, instance=Plate-1
     1,    26,    51,    76,   101,   126,   151,   176,   201,   226,   251,   276,   301,   326,   351,   376
   401,   426,   451,   476,   501,   526,   551,   576,   601,   626,   651,   676,   701,   726,   751,   776
   801,   802,   803,   804,   805,   806,   807,   808,   809,   810,   811,  1067,  1081,  1095,  1109,  1123
  1137,  1151,  1165,  1179,  1180,  1205,  1230,  1255,  1280,  1305,  1330,  1355,  1380,  1405,  1430,  1455
  1480,  1505,  1530,  1555,  1580,  1605,  1630,  1655,  1680,  1705,  1730,  1755,  1780,  1805,  1830,  1855
  1880,  1905,  1930,  1955,  1980,  1981,  1982,  1983,  1984,  1985,  1986,  1987,  1988,  1989,  1990,  2246
  2260,  2274,  2288,  2302,  2316,  2330,  2344,  2358,  2359,  2384,  2409,  2434,  2459,  2484,  2509,  2534
  2559,  2584,  2609,  2634,  2659,  2684,  2709,  2734,  2759,  2784,  2809,  2834,  2859,  2884,  2909,  2934
  2959,  2984,  3009,  3034,  3059,  3084,  3109,  3134,  3159,  3160,  3161,  3162,  3163,  3164,  3165,  3166
  3167,  3168,  3169,  3425,  3439,  3453,  3467,  3481,  3495,  3509,  3523,  3537,  3538,  3563,  3588,  3613
  3638,  3663,  3688,  3713,  3738,  3763,  3788,  3813,  3838,  3863,  3888,  3913,  3938,  3963,  3988,  4013
  4038,  4063,  4088,  4113,  4138,  4163,  4188,  4213,  4238,  4263,  4288,  4313,  4338,  4339,  4340,  4341
  4342,  4343,  4344,  4345,  4346,  4347,  4348,  4604,  4618,  4632,  4646,  4660,  4674,  4688,  4702,  4716
  4739,  4762,  4785,  4808,  4831,  4854,  4877,  4900,  4923,  4946,  4969,  4992,  5015,  5038,  5061,  5084
  5107,  5130,  5153,  5176,  5199,  5222,  5245,  5268,  5291,  5314,  5337,  5360,  5383,  5406,  5429,  6382
  6405,  6428,  6451,  6474,  6497,  6520,  6543,  6566,  6589,  6612,  6635,  6658,  6681,  6704,  6727,  6750
  6773,  6796,  6819,  6842,  6865,  6888,  6911,  6934,  6957,  6980,  7003,  7026,  7049,  7072,  8955,  8978
  9001,  9024,  9047,  9070,  9093,  9116,  9139,  9162,  9185,  9208,  9231,  9254,  9277,  9300,  9323,  9346
  9369,  9392,  9415,  9438,  9461,  9484,  9507,  9530,  9553,  9576,  9599,  9622,  9645,  9668,  9691,  9714
  9737,  9760,  9783,  9806,  9829,  9852,  9875,  9898,  9921,  9944,  9967,  9990, 10013, 10036, 10059, 10082
 10105, 10128, 10151, 10174, 10197, 10220, 10243, 10266, 10289, 10312, 10335, 10358
*End Assembly
** 
** ELEMENT CONTROLS
** 
*Section Controls, name=EC-1, hourglass=ENHANCED, second order accuracy=YES
1., 1., 1.
*Amplitude, name=Driver10Bar
             0.,              0.,          0.0001,          0.4462, 0.00147931034482759, 0.403353179334616, 0.00285862068965517, 0.364021421197428
0.00423793103448276, 0.327938361800707, 0.00561724137931035, 0.294856876200396, 0.00699655172413793, 0.264547732713157, 0.00837586206896552, 0.236798339297337
0.0097551724137931, 0.211411575720852, 0.0111344827586207, 0.188204705748233, 0.0125137931034483, 0.167008363961625, 0.0138931034482759, 0.147665612187893
0.0152724137931034, 0.130031060837949, 0.016651724137931, 0.113970050776412, 0.0180310344827586, 0.0993578916312382, 0.0194103448275862, 0.0860791527252794
0.0207896551724138, 0.0740270030661679, 0.0221689655172414, 0.0631025970685725, 0.023548275862069, 0.0532145029048911, 0.0249275862068966, 0.0442781705878096
0.0263068965517241, 0.0362154370818443, 0.0276862068965517, 0.0289540659218805, 0.0290655172413793, 0.0224273189856682, 0.0304448275862069, 0.0165735582250075
0.0318241379310345, 0.0113358753076885, 0.0332034482758621, 0.00666174725982981, 0.0345827586206897, 0.00250271632671636
*Amplitude, name=Driver15Bar
             0.,              0.,          0.0001,          0.6066, 0.000326130653266332, 0.597255606871735, 0.000552261306532663, 0.588039538224459
0.000778391959798995, 0.578950140015279, 0.00100452261306533, 0.569985778680351, 0.00123065326633166, 0.561144840888287, 0.00145678391959799, 0.552425733296464
0.00168291457286432, 0.543826882310219, 0.00190904522613065, 0.535346733844879, 0.00213517587939699, 0.526983753090603, 0.00236130653266332, 0.518736424279999
0.00258743718592965, 0.510603250458486, 0.00281356783919598, 0.502582753257369, 0.00303969849246231, 0.494673472669594, 0.00326582914572864, 0.486873966828152
0.00349195979899498, 0.479182811787102, 0.00371809045226131, 0.471598601305186, 0.00394422110552764, 0.464119946631993, 0.00417035175879397, 0.456745476296665
0.0043964824120603, 0.449473835899089, 0.00462261306532663, 0.442303687903566, 0.00484874371859297, 0.435233711434919, 0.0050748743718593, 0.428262602077018
0.00530100502512563, 0.421389071673683, 0.00552713567839196, 0.414611848131946, 0.00575326633165829, 0.407929675227649, 0.00597939698492462, 0.401341312413332
0.00620552763819096, 0.39484553462841, 0.00643165829145729, 0.388441132111588, 0.00665778894472362, 0.382126910215507, 0.00688391959798995, 0.375901689223581
0.00711005025125628, 0.369764304169008, 0.00733618090452261, 0.363713604655925, 0.00756231155778894, 0.357748454682691, 0.00778844221105528, 0.351867732467255
0.00801457286432161, 0.346070330274603, 0.00824070351758794, 0.340355154246253, 0.00846683417085427, 0.334721124231771, 0.0086929648241206, 0.329167173622288
0.00891909547738693, 0.323692249185992, 0.00914522613065327, 0.318295310905579, 0.0093713567839196, 0.312975331817627, 0.00959748743718593, 0.307731297853887
0.00982361809045226, 0.302562207684454, 0.0100497487437186, 0.2974670725628, 0.0102758793969849, 0.292444916172661, 0.0105020100502513, 0.287494774476728
0.0107281407035176, 0.282615695567152, 0.0109542713567839, 0.277806739517819, 0.0111804020100503, 0.273066978238387, 0.0114065326633166, 0.268395495330055
0.0116326633165829, 0.263791385943056, 0.0118587939698492, 0.259253756635837, 0.0120849246231156, 0.254781725235929, 0.0123110552763819, 0.250374420702459
0.0125371859296482, 0.246030982990315, 0.0127633165829146, 0.241750562915915, 0.0129894472361809, 0.237532322024587, 0.0132155778894472, 0.233375432459526
0.0134417085427136, 0.229279076832312, 0.0136678391959799, 0.225242448094972, 0.0138939698492462, 0.221264749413574, 0.0141201005025126, 0.217345194043321
0.0143462311557789, 0.213483005205142, 0.0145723618090452, 0.209677415963749, 0.0147984924623116, 0.20592766910716, 0.0150246231155779, 0.202233017027652
0.0152507537688442, 0.198592721604139, 0.0154768844221106, 0.195006054085953, 0.0157030150753769, 0.191472294978023, 0.0159291457286432, 0.187990733927409
0.0161552763819096, 0.184560669611211, 0.0163814070351759, 0.181181409625806, 0.0166075376884422, 0.177852270377416, 0.0168336683417085, 0.174572576973979
0.0170597989949749, 0.171341663118321, 0.0172859296482412, 0.168158871002604, 0.0175120603015075, 0.165023551204031, 0.0177381909547739, 0.161935062581814
** ... 29 like lines cut
** 
** MATERIALS
** 
*Material, name=AA6016_T4
*Density
 7.85e-09,
*Elastic
70000., 0.3
*Time Points, name=TimePoints-1, GENERATE
0., 0.0001, 0.0001
0.0001, 0.002, 0.0001
** ----------------------------------------------------------------
** 
** STEP: Load
** 
*Step, name=Load, nlgeom=YES
*Dynamic, Explicit
, 0.02
*Bulk Viscosity
0.06, 1.2
** 
** BOUNDARY CONDITIONS
** 
** Name: FixedEnd Type: Symmetry/Antisymmetry/Encastre
*Boundary
ShellBoundary, ENCASTRE
** 
** LOADS
** 
** Name: Pressure   Type: Pressure
*Dsload, amplitude=<AMP>
Plate-1.LoadSurface, PNU, 1.
** 
** OUTPUT REQUESTS
** 
*Restart, write, number interval=1, time marks=NO
** 
** FIELD OUTPUT: F-Output-1
** 
*Output, field, time points=TimePoints-1
*Node Output
U, 
*Element Output, directions=YES
MISES, P, S, SDV, STATUS, TRIAX
** 
** HISTORY OUTPUT: H-Output-1
** 
*Output, history, variable=PRESELECT
*End Step
