*Heading
** Job name: 4-45_1p5 Model name: 4-45-FSI
** Generated by: Abaqus/CAE 2022
*Preprint, echo=NO, model=NO, history=NO, contact=NO
**
** PARTS
**
*Part, name=Plate
*Node
      1,  -81.2132034,   81.2132034,           0.
      2,  -81.2132034,   38.7867966,           0.
      3,  -60.0707092,          60.,           0.
      4,  -81.2132034,  -38.7867966,           0.
      5,  -81.2132034,  -81.2132034,           0.
      6,  -60.0707092,         -60.,           0.
      7,   81.2132034,   81.2132034,           0.
      8,   38.7867966,   81.2132034,           0.
      9,          60.,   60.0707092,           0.
     10,  -38.7867966,   81.2132034,           0.
     11,         -60.,   60.0707092,           0.
     12,  -38.7867966,  -81.2132034,           0.
     13,         -60.,  -60.0707092,           0.
     14,   38.7867966,  -81.2132034,           0.
     15,   81.2132034,  -81.2132034,           0.
     16,          60.,  -60.0707092,           0.
     17,   38.7867966,   38.7867966,           0.
     18,   59.9292908,          60.,           0.
     19,  -38.7867966,   38.7867966,           0.
     20,  -59.9292908,          60.,           0.
** ... 41406 like lines cut
*Element, type=S3R
1, 2653, 2505, 2470
2, 2597, 2571, 2572
3, 2606, 2595, 2593
4, 2666, 2637, 2629
5, 2649, 2600, 2645
6, 2654, 2469, 2496
243, 2862, 2694, 2704
244, 2808, 2805, 2803
245, 2861, 2718, 2670
246, 2856, 2853, 2854
485, 2918,  196,  197
486, 3015, 3007, 3005
487, 3010, 2986, 2982
488, 3057, 3013, 3040
489, 3079, 3053, 3045
490, 3069, 2900, 2909
727, 3221, 3214, 3212
728, 3129,  261,  262
729, 3216, 3193, 3185
730, 3283, 3259, 3265
** ... 80 like lines cut
*Element, type=S4R
  7,   96,   97, 2464, 2489
  8, 2510, 2491, 2552, 2558
  9,   95,   96, 2489, 2461
 10, 2503,   53,   54, 2509
 11, 2461, 2475,   94,   95
 12, 2503, 2509, 2555, 2548
 13, 2475, 2476,   93,   94
 14,   52, 2492, 2491,   51
 15, 2656,   86,    3,   87
 16, 2655, 2477, 2579, 2527
 17,   90,   91, 2490, 2517
 18, 2463, 2490,   91,   92
 19, 2504,   57,   58, 2508
 20,   56, 2494, 2493,   55
 21, 2508, 2498, 2550, 2557
 22, 2471,   77,   78, 2479
 23,   76, 2466, 2478,   75
 24,   75, 2478, 2467,   74
 25, 2462,   72,   73, 2468
 26, 2530, 2462, 2468, 2525
** ... 40639 like lines cut
*Nset, nset=PlateShell, generate
     1,  41426,      1
*Elset, elset=PlateShell, generate
     1,  40759,      1
*Nset, nset=ShellBoundary
   27,   28,   29,   30,   35,   36,   38,   39,  962,  963,  964,  965,  966,  967,  968,  969
  970,  971,  972,  973,  974,  975,  976,  977,  978,  979,  980,  981,  982,  983,  984,  985
  986,  987,  988,  989,  990,  991,  992,  993,  994,  995,  996,  997,  998,  999, 1000, 1001
 1002, 1003, 1004, 1005, 1006, 1007, 1008, 1009, 1010, 1011, 1012, 1013, 1014, 1015, 1016, 1017
 1018, 1019, 1020, 1021, 1022, 1023, 1024, 1025, 1026, 1027, 1028, 1029, 1030, 1031, 1032, 1033
 1034, 1035, 1036, 1037, 1038, 1039, 1040, 1041, 1042, 1043, 1044, 1045, 1046, 1047, 1048, 1049
 1050, 1051, 1052, 1053, 1054, 1055, 1056, 1057, 1058, 1059, 1060, 1061, 1062, 1063, 1064, 1065
 1066, 1067, 1068, 1069, 1070, 1071, 1072, 1073, 1074, 1075, 1076, 1077, 1078, 1079, 1080, 1081
 1082, 1083, 1084, 1085, 1086, 1087, 1088, 1089, 1090, 1091, 1092, 1093, 1094, 1095, 1096, 1097
 1098, 1099, 1100, 1101, 1102, 1103, 1104, 1105, 1106, 1107, 1108, 1109, 1110, 1111, 1112, 1113
 1114, 1115, 1116, 1117, 1118, 1119, 1120, 1121, 1122, 1123, 1124, 1125, 1126, 1127, 1128, 1129
 1130, 1131, 1132, 1133, 1134, 1135, 1136, 1137, 1138, 1139, 1140, 1141, 1142, 1143, 1144, 1145
 1146, 1147, 1148, 1149, 1150, 1151, 1152, 1153, 1154, 1155, 1156, 1157, 1158, 1159, 1160, 1161
 1162, 1163, 1164, 1165, 1166, 1167, 1168, 1169, 1170, 1171, 1172, 1173, 1174, 1175, 1176, 1177
 1178, 1179, 1180, 1181, 1182, 1183, 1184, 1185, 1186, 1187, 1188, 1189, 1190, 1191, 1192, 1193
 1194, 1195, 1196, 1197, 1198, 1199, 1200, 1201, 1202, 1203, 1204, 1205, 1206, 1207, 1208, 1209
 1210, 1211, 1212, 1213, 1214, 1215, 1216, 1217, 1218, 1219, 1220, 1221, 1222, 1223, 1224, 1225
 1226, 1227, 1228, 1229, 1230, 1231, 1232, 1233, 1234, 1235, 1236, 1237, 1238, 1239, 1240, 1241
 1242, 1243, 1244, 1245, 1246, 1247, 1248, 1249, 1250, 1426, 1427, 1428, 1429, 1430, 1431, 1432
 1433, 1434, 1435, 1436, 1437, 1438, 1439, 1440, 1441, 1442, 1443, 1444, 1445, 1446, 1447, 1448
** ... 30 like lines cut
*Elset, elset=ShellBoundary
  2925,  3124,  3125,  3324,  3325,  3524,  3525,  3724,  3725,  3924,  3925,  4124,  4125,  4324,  4325,  4524
  4525,  4724,  4725,  4924,  4925,  5124,  5125,  5324,  5325,  5524,  5525,  5724,  5725,  5924,  5925,  6124
  6125,  6324,  6325,  6524,  6525,  6724,  6725,  6924,  6925,  7124,  7125,  7324,  7325,  7524,  7525,  7724
  7725,  7924,  7925,  8124,  8125,  8324,  8325,  8524,  8525,  8724,  8725,  8924,  8925,  9124,  9125,  9324
  9325,  9524,  9525,  9724,  9725,  9924,  9925, 10124, 10125, 10324, 10325, 10524, 10525, 10724, 10725, 10924
 10925, 11124, 11125, 11324, 11325, 11524, 11525, 11724, 11725, 11924, 11925, 11926, 11927, 11928, 11929, 11930
 11931, 11932, 11933, 11934, 11935, 11936, 11937, 11938, 11939, 11940, 11941, 11942, 11943, 11944, 11945, 11946
 11947, 11948, 11949, 11950, 11951, 11952, 11953, 11954, 11955, 11956, 11957, 11958, 11959, 11960, 11961, 11962
 11963, 11964, 11965, 11966, 11967, 11968, 11969, 11970, 11971, 11972, 11973, 11974, 11975, 11976, 11977, 11978
 11979, 11980, 11981, 11982, 11983, 11984, 11985, 11986, 11987, 11988, 11989, 11990, 11991, 11992, 11993, 11994
 11995, 11996, 11997, 11998, 11999, 12000, 12001, 12002, 12003, 12004, 12005, 12006, 12007, 12008, 12009, 12010
 12011, 12012, 12013, 12014, 12015, 12016, 12017, 12018, 12019, 12020, 12021, 12022, 12023, 12024, 12025, 12026
 12027, 12028, 12029, 12030, 12031, 12032, 12033, 12034, 12035, 12036, 12037, 12038, 12039, 12040, 12041, 12042
 12043, 12044, 12045, 12046, 12047, 12048, 12049, 12050, 12051, 12052, 12053, 12054, 12055, 12056, 12057, 12058
 12059, 12060, 12061, 12062, 12063, 12064, 12065, 12066, 12067, 12068, 12069, 12070, 12071, 12072, 12073, 12074
 12075, 12076, 12077, 12078, 12079, 12080, 12081, 12082, 12083, 12084, 12085, 12086, 12087, 12088, 12089, 12090
 12091, 12092, 12093, 12094, 12095, 12096, 12097, 12098, 12099, 12100, 12101, 12102, 12103, 12104, 12105, 12106
 12107, 12108, 12109, 12110, 12111, 12112, 12113, 12114, 12115, 12116, 12117, 12118, 12119, 12120, 12121, 12122
 12123, 12124, 12655, 12701, 12747, 12793, 12839, 12885, 12931, 12977, 13023, 13069, 13115, 13161, 13207, 13253
 13299, 13345, 13391, 13437, 13483, 13529, 13575, 13621, 13667, 13713, 13759, 13805, 13851, 13897, 13943, 13989
** ... 30 like lines cut
*Elset, elset=_<LOADSURFACE>_SNEG, internal, generate
     1,  40759,      1
*Surface, type=ELEMENT, name=<LOADSURFACE>
_<LOADSURFACE>_SNEG, SNEG
** Region: (Section-2:PlateShell), (Controls:Default)
*Elset, elset=_I1, internal
     1,     2,     3,     4,     5,     6,   243,   244,   245,   246,   485,   486,   487,   488,   489,   490
   727,   728,   729,   730,   731,   732,   968,   969,   970,   971,   972,   973,  1210,  1211,  1212,  1213
  1214,  1215,  1216,  1217,  1456,  1457,  1458,  1459,  1698,  1699,  1700,  1701,  1702,  1703,  1704,  1705
  1947,  1948,  1949,  1950,  1951,  1952,  1953,  1954,  2189,  2190,  2191,  2192,  2193,  2194,  2435,  2436
  2437,  2438,  2678,  2679,  2680,  2681,  2682,  2683,  2684,  2685, 12125, 12126, 12127, 12128, 12129, 12130
 12368, 12369, 12370, 12371, 12372, 12373, 26914, 26915, 26916, 26917, 26918, 26919, 36357, 36358, 36359, 36360
 36361, 36362, 36363, 36364
** Section: Section-2
*Shell Section, elset=_I1, material=<MAT>
1.5, 5
*Transverse Shear Stiffness
72916.7, 72916.7, 0.
** Region: (Section-2:PlateShell), (Controls:EC-1)
*Elset, elset=_I2, internal
     7,     8,     9,    10,    11,    12,    13,    14,    15,    16,    17,    18,    19,    20,    21,    22
    23,    24,    25,    26,    27,    28,    29,    30,    31,    32,    33,    34,    35,    36,    37,    38
    39,    40,    41,    42,    43,    44,    45,    46,    47,    48,    49,    50,    51,    52,    53,    54
    55,    56,    57,    58,    59,    60,    61,    62,    63,    64,    65,    66,    67,    68,    69,    70
    71,    72,    73,    74,    75,    76,    77,    78,    79,    80,    81,    82,    83,    84,    85,    86
    87,    88,    89,    90,    91,    92,    93,    94,    95,    96,    97,    98,    99,   100,   101,   102
   103,   104,   105,   106,   107,   108,   109,   110,   111,   112,   113,   114,   115,   116,   117,   118
   119,   120,   121,   122,   123,   124,   125,   126,   127,   128,   129,   130,   131,   132,   133,   134
   135,   136,   137,   138,   139,   140,   141,   142,   143,   144,   145,   146,   147,   148,   149,   150
   151,   152,   153,   154,   155,   156,   157,   158,   159,   160,   161,   162,   163,   164,   165,   166
   167,   168,   169,   170,   171,   172,   173,   174,   175,   176,   177,   178,   179,   180,   181,   182
   183,   184,   185,   186,   187,   188,   189,   190,   191,   192,   193,   194,   195,   196,   197,   198
   199,   200,   201,   202,   203,   204,   205,   206,   207,   208,   209,   210,   211,   212,   213,   214
   215,   216,   217,   218,   219,   220,   221,   222,   223,   224,   225,   226,   227,   228,   229,   230
   231,   232,   233,   234,   235,   236,   237,   238,   239,   240,   241,   242,   247,   248,   249,   250
   251,   252,   253,   254,   255,   256,   257,   258,   259,   260,   261,   262,   263,   264,   265,   266
   267,   268,   269,   270,   271,   272,   273,   274,   275,   276,   277,   278,   279,   280,   281,   282
   283,   284,   285,   286,   287,   288,   289,   290,   291,   292,   293,   294,   295,   296,   297,   298
   299,   300,   301,   302,   303,   304,   305,   306,   307,   308,   309,   310,   311,   312,   313,   314
   315,   316,   317,   318,   319,   320,   321,   322,   323,   324,   325,   326,   327,   328,   329,   330
** ... 2522 like lines cut
** Section: Section-2
*Shell Section, elset=_I2, material=<MAT>, controls=EC-1
1.5, 5
*Transverse Shear Stiffness
72916.7, 72916.7, 0.
*End Part
**  
**
** ASSEMBLY
**
*Assembly, name=Assembly
**  
*Instance, name=Plate-1, part=Plate
*End Instance
**  
*End Assembly
** 
** ELEMENT CONTROLS
** 
*Section Controls, name=EC-1, hourglass=ENHANCED, second order accuracy=YES
1., 1., 1.
*Amplitude, name=Driver10Bar
             0.,              0.,          0.0001,          0.4462, 0.00147931034482759, 0.403353179334616, 0.00285862068965517, 0.364021421197428
0.00423793103448276, 0.327938361800707, 0.00561724137931035, 0.294856876200396, 0.00699655172413793, 0.264547732713157, 0.00837586206896552, 0.236798339297337
0.0097551724137931, 0.211411575720852, 0.0111344827586207, 0.188204705748233, 0.0125137931034483, 0.167008363961625, 0.0138931034482759, 0.147665612187893
0.0152724137931034, 0.130031060837949, 0.016651724137931, 0.113970050776412, 0.0180310344827586, 0.0993578916312382, 0.0194103448275862, 0.0860791527252794
0.0207896551724138, 0.0740270030661679, 0.0221689655172414, 0.0631025970685725, 0.023548275862069, 0.0532145029048911, 0.0249275862068966, 0.0442781705878096
0.0263068965517241, 0.0362154370818443, 0.0276862068965517, 0.0289540659218805, 0.0290655172413793, 0.0224273189856682, 0.0304448275862069, 0.0165735582250075
0.0318241379310345, 0.0113358753076885, 0.0332034482758621, 0.00666174725982981, 0.0345827586206897, 0.00250271632671636
*Amplitude, name=Driver15Bar
             0.,              0.,          0.0001,          0.6066, 0.000326130653266332, 0.597255606871735, 0.000552261306532663, 0.588039538224459
0.000778391959798995, 0.578950140015279, 0.00100452261306533, 0.569985778680351, 0.00123065326633166, 0.561144840888287, 0.00145678391959799, 0.552425733296464
0.00168291457286432, 0.543826882310219, 0.00190904522613065, 0.535346733844879, 0.00213517587939699, 0.526983753090603, 0.00236130653266332, 0.518736424279999
0.00258743718592965, 0.510603250458486, 0.00281356783919598, 0.502582753257369, 0.00303969849246231, 0.494673472669594, 0.00326582914572864, 0.486873966828152
0.00349195979899498, 0.479182811787102, 0.00371809045226131, 0.471598601305186, 0.00394422110552764, 0.464119946631993, 0.00417035175879397, 0.456745476296665
0.0043964824120603, 0.449473835899089, 0.00462261306532663, 0.442303687903566, 0.00484874371859297, 0.435233711434919, 0.0050748743718593, 0.428262602077018
0.00530100502512563, 0.421389071673683, 0.00552713567839196, 0.414611848131946, 0.00575326633165829, 0.407929675227649, 0.00597939698492462, 0.401341312413332
0.00620552763819096, 0.39484553462841, 0.00643165829145729, 0.388441132111588, 0.00665778894472362, 0.382126910215507, 0.00688391959798995, 0.375901689223581
0.00711005025125628, 0.369764304169008, 0.00733618090452261, 0.363713604655925, 0.00756231155778894, 0.357748454682691, 0.00778844221105528, 0.351867732467255
0.00801457286432161, 0.346070330274603, 0.00824070351758794, 0.340355154246253, 0.00846683417085427, 0.334721124231771, 0.0086929648241206, 0.329167173622288
0.00891909547738693, 0.323692249185992, 0.00914522613065327, 0.318295310905579, 0.0093713567839196, 0.312975331817627, 0.00959748743718593, 0.307731297853887
0.00982361809045226, 0.302562207684454, 0.0100497487437186, 0.2974670725628, 0.0102758793969849, 0.292444916172661, 0.0105020100502513, 0.287494774476728
0.0107281407035176, 0.282615695567152, 0.0109542713567839, 0.277806739517819, 0.0111804020100503, 0.273066978238387, 0.0114065326633166, 0.268395495330055
0.0116326633165829, 0.263791385943056, 0.0118587939698492, 0.259253756635837, 0.0120849246231156, 0.254781725235929, 0.0123110552763819, 0.250374420702459
0.0125371859296482, 0.246030982990315, 0.0127633165829146, 0.241750562915915, 0.0129894472361809, 0.237532322024587, 0.0132155778894472, 0.233375432459526
0.0134417085427136, 0.229279076832312, 0.0136678391959799, 0.225242448094972, 0.0138939698492462, 0.221264749413574, 0.0141201005025126, 0.217345194043321
0.0143462311557789, 0.213483005205142, 0.0145723618090452, 0.209677415963749, 0.0147984924623116, 0.20592766910716, 0.0150246231155779, 0.202233017027652
0.0152507537688442, 0.198592721604139, 0.0154768844221106, 0.195006054085953, 0.0157030150753769, 0.191472294978023, 0.0159291457286432, 0.187990733927409
0.0161552763819096, 0.184560669611211, 0.0163814070351759, 0.181181409625806, 0.0166075376884422, 0.177852270377416, 0.0168336683417085, 0.174572576973979
0.0170597989949749, 0.171341663118321, 0.0172859296482412, 0.168158871002604, 0.0175120603015075, 0.165023551204031, 0.0177381909547739, 0.161935062581814
** ... 29 like lines cut
** 
** MATERIALS
** 
*Material, name=AA6016_T4
*Density
 7.85e-09,
*Elastic
70000., 0.3
*Time Points, name=TimePoints-1, GENERATE
0., 0.0001, 0.0001
0.0001, 0.0015, 0.0001
** ----------------------------------------------------------------
** 
** STEP: Load
** 
*Step, name=Load, nlgeom=YES
*Dynamic, Explicit
, 0.0015
*Bulk Viscosity
0.06, 1.2
** 
** BOUNDARY CONDITIONS
** 
** Name: FixedEnd Type: Symmetry/Antisymmetry/Encastre
*Boundary
Plate-1.ShellBoundary, ENCASTRE
** 
** LOADS
** 
** Name: Pressure   Type: Pressure
*Dsload, amplitude=<AMP>
Plate-1.<LOADSURFACE>, PNU, 1.
** 
** OUTPUT REQUESTS
** 
*Restart, write, number interval=1, time marks=NO
** 
** FIELD OUTPUT: F-Output-1
** 
*Output, field, time points=TimePoints-1
*Node Output
U, 
*Element Output, directions=YES
MISES, P, S, SDV, STATUS, TRIAX
** 
** HISTORY OUTPUT: H-Output-1
** 
*Output, history, variable=PRESELECT
*End Step
