*Heading
** Job name: 4-45_3p0 Model name: 4-45
** Generated by: Abaqus/CAE 2022
*Preprint, echo=NO, model=NO, history=NO, contact=NO
**
** PARTS
**
*Part, name=Plate
*Node
      1,         150.,  -30.2300568,           0.
      2,   119.999786,   -0.1295048,           0.
      3,   81.2132034,  -38.7867966,           0.
      4,   81.2132034,  -81.2132034,           0.
      5,   60.0707092,         -60.,           0.
      6,         150.,        -150.,           0.
      7,         150.,     29.77071,           0.
      8,        -150.,   30.2300568,           0.
      9,  -119.999786,    0.1295048,           0.
     10,  -81.2132034,   38.7867966,           0.
     11,  -81.2132034,   81.2132034,           0.
     12,  -60.0707092,          60.,           0.
     13,        -150.,         150.,           0.
     14,        -150.,    -29.77071,           0.
     15,  -30.2300568,        -150.,           0.
     16,   -0.1295048,  -119.999786,           0.
     17,  -38.7867966,  -81.2132034,           0.
     18,  -81.2132034,  -81.2132034,           0.
     19,         -60.,  -60.0707092,           0.
     20,        -150.,        -150.,           0.
** ... 46734 like lines cut
*Element, type=S4R
   1,    1,   50, 2294,  269
   2,   50,   51, 2295, 2294
   3,   51,   52, 2296, 2295
   4,   52,   53, 2297, 2296
   5,   53,   54, 2298, 2297
   6,   54,   55, 2299, 2298
   7,   55,   56, 2300, 2299
   8,   56,   57, 2301, 2300
   9,   57,   58, 2302, 2301
  10,   58,   59, 2303, 2302
  11,   59,   60, 2304, 2303
  12,   60,   61, 2305, 2304
  13,   61,   62, 2306, 2305
  14,   62,   63, 2307, 2306
  15,   63,   64, 2308, 2307
  16,   64,   65, 2309, 2308
  17,   65,   66, 2310, 2309
  18,   66,   67, 2311, 2310
  19,   67,   68, 2312, 2311
  20,   68,   69, 2313, 2312
** ... 46090 like lines cut
*Nset, nset=PlateShell, generate
     1,  46754,      1
*Elset, elset=PlateShell, generate
     1,  46110,      1
*Elset, elset=_LoadSurface_SNEG, internal, generate
     1,  46110,      1
*Surface, type=ELEMENT, name=LoadSurface
_LoadSurface_SNEG, SNEG
** Section: Section-2
*Shell Section, elset=PlateShell, material=<MAT>, controls=EC-1
1.5, 5
*Transverse Shear Stiffness
72916.7, 72916.7, 0.
*End Part
**  
**
** ASSEMBLY
**
*Assembly, name=Assembly
**  
*Instance, name=Plate-1, part=Plate
*End Instance
**  
*Nset, nset=ShellBoundary, instance=Plate-1
    1,    6,    7,    8,   13,   14,   15,   20,   21,   22,   27,   28,  206,  207,  208,  209
  210,  211,  212,  213,  214,  215,  216,  217,  218,  219,  220,  221,  222,  223,  224,  225
  226,  227,  228,  229,  230,  231,  232,  233,  234,  235,  236,  237,  238,  239,  240,  241
  242,  243,  244,  245,  246,  247,  248,  249,  250,  251,  252,  253,  254,  255,  256,  257
  258,  259,  260,  261,  262,  263,  264,  265,  266,  267,  268,  269,  270,  271,  272,  273
  274,  275,  276,  277,  278,  279,  280,  281,  282,  283,  284,  285,  286,  287,  288,  289
  290,  291,  292,  293,  294,  295,  296,  297,  298,  299,  300,  301,  302,  303,  304,  305
  306,  307,  512,  513,  514,  515,  516,  517,  518,  519,  520,  521,  522,  523,  524,  525
  526,  527,  528,  529,  530,  531,  532,  533,  534,  535,  536,  537,  538,  539,  540,  541
  542,  543,  544,  545,  546,  547,  548,  549,  550,  551,  552,  553,  554,  555,  556,  557
  558,  559,  560,  561,  562,  563,  564,  565,  566,  567,  568,  569,  570,  571,  572,  573
  574,  575,  576,  577,  578,  579,  580,  581,  582,  583,  584,  585,  586,  587,  588,  589
  590,  591,  592,  593,  594,  595,  596,  597,  598,  599,  600,  601,  602,  603,  604,  605
  606,  607,  608,  609,  610,  611,  612,  613,  614,  819,  820,  821,  822,  823,  824,  825
  826,  827,  828,  829,  830,  831,  832,  833,  834,  835,  836,  837,  838,  839,  840,  841
  842,  843,  844,  845,  846,  847,  848,  849,  850,  851,  852,  853,  854,  855,  856,  857
  858,  859,  860,  861,  862,  863,  864,  865,  866,  867,  868,  869,  870,  871,  872,  873
  874,  875,  876,  877,  878,  879,  880,  881,  882,  883,  884,  885,  886,  887,  888,  889
  890,  891,  892,  893,  894,  895,  896,  897,  898,  899,  900,  901,  902,  903,  904,  905
  906,  907,  908,  909,  910,  911,  912,  913,  914,  915,  916,  917,  918,  919,  920,  921
** ... 22 like lines cut
*Elset, elset=ShellBoundary, instance=Plate-1
     1,    49,    97,   145,   193,   241,   289,   337,   385,   433,   481,   529,   577,   625,   673,   721
   769,   817,   865,   913,   961,  1009,  1057,  1105,  1153,  1201,  1249,  1297,  1345,  1393,  1441,  1489
  1537,  1585,  1633,  1681,  1729,  1777,  1825,  1873,  1921,  1969,  2017,  2065,  2113,  2161,  2209,  2257
  2305,  2353,  2401,  2449,  2497,  2545,  2593,  2641,  2689,  2737,  2785,  2833,  2881,  2929,  2977,  3025
  3073,  3121,  3122,  3123,  3124,  3125,  3126,  3127,  3128,  3129,  3130,  3131,  3132,  3133,  3134,  3135
  3136,  3137,  3138,  3139,  3140,  4088,  4116,  4144,  4172,  4200,  4228,  4256,  4284,  4312,  4340,  4368
  4396,  4424,  4452,  4480,  4508,  4536,  4564,  4592,  4593,  4642,  4691,  4740,  4789,  4838,  4887,  4936
  4985,  5034,  5083,  5132,  5181,  5230,  5279,  5328,  5377,  5426,  5475,  5524,  5573,  5622,  5671,  5720
  5769,  5818,  5867,  5916,  5965,  6014,  6063,  6112,  6161,  6210,  6259,  6308,  6357,  6406,  6455,  6504
  6553,  6602,  6651,  6700,  6749,  6798,  6847,  6896,  6945,  6994,  7043,  7092,  7141,  7190,  7239,  7288
  7337,  7386,  7435,  7484,  7533,  7582,  7631,  7680,  7729,  7778,  7779,  7780,  7781,  7782,  7783,  7784
  7785,  7786,  7787,  7788,  7789,  7790,  7791,  7792,  7793,  7794,  7795,  7796,  7797,  7798,  8792,  8820
  8848,  8876,  8904,  8932,  8960,  8988,  9016,  9044,  9072,  9100,  9128,  9156,  9184,  9212,  9240,  9268
  9296,  9297,  9346,  9395,  9444,  9493,  9542,  9591,  9640,  9689,  9738,  9787,  9836,  9885,  9934,  9983
 10032, 10081, 10130, 10179, 10228, 10277, 10326, 10375, 10424, 10473, 10522, 10571, 10620, 10669, 10718, 10767
 10816, 10865, 10914, 10963, 11012, 11061, 11110, 11159, 11208, 11257, 11306, 11355, 11404, 11453, 11502, 11551
 11600, 11649, 11698, 11747, 11796, 11845, 11894, 11943, 11992, 12041, 12090, 12139, 12188, 12237, 12286, 12335
 12384, 12433, 12482, 12483, 12484, 12485, 12486, 12487, 12488, 12489, 12490, 12491, 12492, 12493, 12494, 12495
 12496, 12497, 12498, 12499, 12500, 12501, 12502, 13496, 13524, 13552, 13580, 13608, 13636, 13664, 13692, 13720
 13748, 13776, 13804, 13832, 13860, 13888, 13916, 13944, 13972, 14000, 14001, 14050, 14099, 14148, 14197, 14246
** ... 22 like lines cut
*End Assembly
** 
** ELEMENT CONTROLS
** 
*Section Controls, name=EC-1, hourglass=ENHANCED, second order accuracy=YES
1., 1., 1.
*Amplitude, name=Driver10Bar
             0.,              0.,          0.0001,          0.4462, 0.00147931034482759, 0.403353179334616, 0.00285862068965517, 0.364021421197428
0.00423793103448276, 0.327938361800707, 0.00561724137931035, 0.294856876200396, 0.00699655172413793, 0.264547732713157, 0.00837586206896552, 0.236798339297337
0.0097551724137931, 0.211411575720852, 0.0111344827586207, 0.188204705748233, 0.0125137931034483, 0.167008363961625, 0.0138931034482759, 0.147665612187893
0.0152724137931034, 0.130031060837949, 0.016651724137931, 0.113970050776412, 0.0180310344827586, 0.0993578916312382, 0.0194103448275862, 0.0860791527252794
0.0207896551724138, 0.0740270030661679, 0.0221689655172414, 0.0631025970685725, 0.023548275862069, 0.0532145029048911, 0.0249275862068966, 0.0442781705878096
0.0263068965517241, 0.0362154370818443, 0.0276862068965517, 0.0289540659218805, 0.0290655172413793, 0.0224273189856682, 0.0304448275862069, 0.0165735582250075
0.0318241379310345, 0.0113358753076885, 0.0332034482758621, 0.00666174725982981, 0.0345827586206897, 0.00250271632671636
*Amplitude, name=Driver15Bar
             0.,              0.,          0.0001,          0.6066, 0.000326130653266332, 0.597255606871735, 0.000552261306532663, 0.588039538224459
0.000778391959798995, 0.578950140015279, 0.00100452261306533, 0.569985778680351, 0.00123065326633166, 0.561144840888287, 0.00145678391959799, 0.552425733296464
0.00168291457286432, 0.543826882310219, 0.00190904522613065, 0.535346733844879, 0.00213517587939699, 0.526983753090603, 0.00236130653266332, 0.518736424279999
0.00258743718592965, 0.510603250458486, 0.00281356783919598, 0.502582753257369, 0.00303969849246231, 0.494673472669594, 0.00326582914572864, 0.486873966828152
0.00349195979899498, 0.479182811787102, 0.00371809045226131, 0.471598601305186, 0.00394422110552764, 0.464119946631993, 0.00417035175879397, 0.456745476296665
0.0043964824120603, 0.449473835899089, 0.00462261306532663, 0.442303687903566, 0.00484874371859297, 0.435233711434919, 0.0050748743718593, 0.428262602077018
0.00530100502512563, 0.421389071673683, 0.00552713567839196, 0.414611848131946, 0.00575326633165829, 0.407929675227649, 0.00597939698492462, 0.401341312413332
0.00620552763819096, 0.39484553462841, 0.00643165829145729, 0.388441132111588, 0.00665778894472362, 0.382126910215507, 0.00688391959798995, 0.375901689223581
0.00711005025125628, 0.369764304169008, 0.00733618090452261, 0.363713604655925, 0.00756231155778894, 0.357748454682691, 0.00778844221105528, 0.351867732467255
0.00801457286432161, 0.346070330274603, 0.00824070351758794, 0.340355154246253, 0.00846683417085427, 0.334721124231771, 0.0086929648241206, 0.329167173622288
0.00891909547738693, 0.323692249185992, 0.00914522613065327, 0.318295310905579, 0.0093713567839196, 0.312975331817627, 0.00959748743718593, 0.307731297853887
0.00982361809045226, 0.302562207684454, 0.0100497487437186, 0.2974670725628, 0.0102758793969849, 0.292444916172661, 0.0105020100502513, 0.287494774476728
0.0107281407035176, 0.282615695567152, 0.0109542713567839, 0.277806739517819, 0.0111804020100503, 0.273066978238387, 0.0114065326633166, 0.268395495330055
0.0116326633165829, 0.263791385943056, 0.0118587939698492, 0.259253756635837, 0.0120849246231156, 0.254781725235929, 0.0123110552763819, 0.250374420702459
0.0125371859296482, 0.246030982990315, 0.0127633165829146, 0.241750562915915, 0.0129894472361809, 0.237532322024587, 0.0132155778894472, 0.233375432459526
0.0134417085427136, 0.229279076832312, 0.0136678391959799, 0.225242448094972, 0.0138939698492462, 0.221264749413574, 0.0141201005025126, 0.217345194043321
0.0143462311557789, 0.213483005205142, 0.0145723618090452, 0.209677415963749, 0.0147984924623116, 0.20592766910716, 0.0150246231155779, 0.202233017027652
0.0152507537688442, 0.198592721604139, 0.0154768844221106, 0.195006054085953, 0.0157030150753769, 0.191472294978023, 0.0159291457286432, 0.187990733927409
0.0161552763819096, 0.184560669611211, 0.0163814070351759, 0.181181409625806, 0.0166075376884422, 0.177852270377416, 0.0168336683417085, 0.174572576973979
0.0170597989949749, 0.171341663118321, 0.0172859296482412, 0.168158871002604, 0.0175120603015075, 0.165023551204031, 0.0177381909547739, 0.161935062581814
** ... 29 like lines cut
** 
** MATERIALS
** 
*Material, name=AA6016_T4
*Density
 7.85e-09,
*Elastic
70000., 0.3
*Time Points, name=TimePoints-1, GENERATE
0., 0.0001, 0.0001
0.0001, 0.002, 0.0001
** ----------------------------------------------------------------
** 
** STEP: Load
** 
*Step, name=Load, nlgeom=YES
*Dynamic, Explicit
, 0.02
*Bulk Viscosity
0.06, 1.2
** 
** BOUNDARY CONDITIONS
** 
** Name: FixedEnd Type: Symmetry/Antisymmetry/Encastre
*Boundary
ShellBoundary, ENCASTRE
** 
** LOADS
** 
** Name: Pressure   Type: Pressure
*Dsload, amplitude=<AMP>
Plate-1.LoadSurface, PNU, 1.
** 
** OUTPUT REQUESTS
** 
*Restart, write, number interval=1, time marks=NO
** 
** FIELD OUTPUT: F-Output-1
** 
*Output, field, time points=TimePoints-1
*Node Output
U, 
*Element Output, directions=YES
MISES, P, S, SDV, STATUS, TRIAX
** 
** HISTORY OUTPUT: H-Output-1
** 
*Output, history, variable=PRESELECT
*End Step
