*Heading
** Job name: 4-HV_3p0 Model name: 4-HV
** Generated by: Abaqus/CAE 2022
*Preprint, echo=NO, model=NO, history=NO, contact=NO
**
** PARTS
**
*Part, name=Plate
*Node
      1,        -150.,         -60.,           0.
      2,        -150.,        -150.,           0.
      3,         -60.,         -90.,           0.
      4,         -60.,        -150.,           0.
      5,         -90.,         -60.,           0.
      6,  -60.0499992,  -60.0499992,           0.
      7,          60.,        -150.,           0.
      8,          60.,         -90.,           0.
      9,   59.9500008,  -60.0499992,           0.
     10,          30.,         -60.,           0.
     11,         -30.,         -60.,           0.
     12,  -59.9500008,  -60.0499992,           0.
     13,  -60.0499992,  -59.9500008,           0.
     14,         -60.,         -30.,           0.
     15,         -60.,          30.,           0.
     16,         -90.,          60.,           0.
     17,  -60.0499992,   59.9500008,           0.
     18,        -150.,          60.,           0.
     19,         -60.,         150.,           0.
     20,        -150.,         150.,           0.
** ... 10337 like lines cut
*Element, type=S4R
  1,    1,   45,  949,  149
  2,   45,   46,  950,  949
  3,   46,   47,  951,  950
  4,   47,   48,  952,  951
  5,   48,   49,  953,  952
  6,   49,   50,  954,  953
  7,   50,   51,  955,  954
  8,   51,   52,  956,  955
  9,   52,   53,  957,  956
 10,   53,   54,  958,  957
 11,   54,   55,  959,  958
 12,   55,   56,  960,  959
 13,   56,   57,  961,  960
 14,   57,   58,  962,  961
 15,   58,   59,  963,  962
 16,   59,   60,  964,  963
 17,   60,   61,  965,  964
 18,   61,   62,  966,  965
 19,   62,   63,  967,  966
 20,   63,   64,  968,  967
** ... 9980 like lines cut
*Nset, nset=PlateShell, generate
     1,  10357,      1
*Elset, elset=PlateShell, generate
     1,  10000,      1
*Elset, elset=_LoadSurface_SNEG, internal, generate
     1,  10000,      1
*Surface, type=ELEMENT, name=LoadSurface
_LoadSurface_SNEG, SNEG
** Section: Section-2
*Shell Section, elset=PlateShell, material=<MAT>, controls=EC-1
1.5, 5
*Transverse Shear Stiffness
72916.7, 72916.7, 0.
*End Part
**  
**
** ASSEMBLY
**
*Assembly, name=Assembly
**  
*Instance, name=Plate-1, part=Plate
*End Instance
**  
*Nset, nset=ShellBoundary, instance=Plate-1
   1,   2,   4,   7,  18,  19,  20,  23,  25,  38,  39,  43,  45,  46,  47,  48
  49,  50,  51,  52,  53,  54,  55,  56,  57,  58,  59,  60,  61,  62,  63,  64
  65,  66,  67,  68,  69,  70,  71,  72,  73,  74,  75,  76,  77,  78,  79,  80
  81,  82,  83,  84,  85,  86,  87,  88,  89,  90,  91,  92,  93,  94,  95,  96
  97,  98,  99, 100, 101, 102, 233, 234, 235, 236, 237, 238, 239, 240, 241, 242
 243, 244, 245, 246, 247, 248, 249, 250, 251, 252, 253, 254, 255, 256, 257, 258
 259, 260, 261, 262, 263, 264, 265, 266, 267, 268, 269, 270, 271, 346, 347, 348
 349, 350, 351, 352, 353, 354, 355, 356, 357, 358, 359, 360, 361, 362, 363, 364
 365, 366, 367, 368, 369, 370, 371, 372, 373, 374, 375, 376, 377, 378, 379, 380
 381, 382, 383, 384, 385, 386, 387, 388, 389, 390, 391, 392, 393, 394, 395, 396
 397, 398, 399, 400, 401, 402, 403, 404, 405, 406, 407, 408, 409, 410, 411, 412
 413, 414, 415, 416, 417, 418, 419, 420, 421, 422, 423, 424, 425, 426, 427, 428
 429, 430, 431, 432, 433, 434, 435, 436, 437, 438, 439, 440, 441, 442, 480, 481
 482, 483, 484, 485, 486, 487, 488, 489, 490, 491, 492, 493, 494, 495, 496, 497
 498, 499, 500, 501, 502, 503, 504, 505, 506, 507, 508, 509, 510, 511, 512, 513
 514, 515, 516, 517, 518, 519, 520, 521, 522, 523, 524, 525, 526, 527, 528, 529
 530, 531, 532, 533, 534, 535, 536, 537, 740, 741, 742, 743, 744, 745, 746, 747
 748, 749, 750, 751, 752, 753, 754, 755, 756, 757, 758, 759, 760, 761, 762, 763
 764, 765, 766, 767, 768, 769, 770, 771, 772, 773, 774, 775, 776, 777, 778, 834
 835, 836, 837, 838, 839, 840, 841, 842, 843, 844, 845, 846, 847, 848, 849, 850
** ... 5 like lines cut
*Elset, elset=ShellBoundary, instance=Plate-1
     1,     2,     3,     4,     5,     6,     7,     8,     9,    10,    11,    12,    13,    14,    15,    16
    17,    18,    19,    20,    21,    22,    23,    24,    25,    26,    27,    28,    29,    30,    60,    90
   120,   150,   180,   210,   240,   270,   300,   330,   360,   390,   420,   450,   480,   510,   540,   570
   600,   630,   660,   690,   720,   750,   780,   810,   840,   870,   900,   901,   931,   961,   991,  1021
  1051,  1081,  1111,  1141,  1171,  1201,  1231,  1261,  1291,  1321,  1351,  1381,  1411,  1441,  1471,  1501
  1531,  1561,  1591,  1621,  1651,  1681,  1711,  1741,  1771,  1801,  1831,  1861,  1891,  1921,  1951,  1981
  2011,  2041,  2071,  2101,  2131,  2161,  2191,  2221,  2251,  2281,  2311,  2341,  2371,  2401,  2431,  2461
  2491,  2521,  2551,  2581,  2611,  2641,  2671,  2701,  2731,  2761,  2791,  2821,  2851,  2881,  2911,  2941
  2971,  3001,  3031,  3061,  3091,  3121,  3151,  3181,  3211,  3241,  3271,  3301,  3302,  3303,  3304,  3305
  3306,  3307,  3308,  3309,  3310,  3311,  3312,  3313,  3314,  3315,  3316,  3317,  3318,  3319,  3320,  3321
  3322,  3323,  3324,  3325,  3326,  3327,  3328,  3329,  3330,  3360,  3390,  3420,  3450,  3480,  3510,  3540
  3570,  3600,  3630,  3660,  3690,  3720,  3750,  3780,  3810,  3840,  3870,  3900,  3930,  3960,  3990,  4020
  4050,  4080,  4110,  4140,  4170,  4200,  4201,  4202,  4203,  4204,  4205,  4206,  4207,  4208,  4209,  4210
  4211,  4212,  4213,  4214,  4215,  4216,  4217,  4218,  4219,  4220,  4221,  4222,  4223,  4224,  4225,  4226
  4227,  4228,  4229,  4230,  4260,  4290,  4320,  4350,  4380,  4410,  4440,  4470,  4500,  4530,  4560,  4590
  4620,  4650,  4680,  4710,  4740,  4770,  4800,  4830,  4860,  4890,  4920,  4950,  4980,  5010,  5040,  5070
  5100,  6701,  6731,  6761,  6791,  6821,  6851,  6881,  6911,  6941,  6971,  7001,  7031,  7061,  7091,  7121
  7151,  7181,  7211,  7241,  7271,  7301,  7331,  7361,  7391,  7421,  7451,  7481,  7511,  7541,  7571,  7601
  7631,  7661,  7691,  7721,  7751,  7781,  7811,  7841,  7871,  7901,  7931,  7961,  7991,  8021,  8051,  8081
  8111,  8141,  8171,  8201,  8231,  8261,  8291,  8321,  8351,  8381,  8411,  8441,  8471,  8501,  8531,  8561
** ... 5 like lines cut
*End Assembly
** 
** ELEMENT CONTROLS
** 
*Section Controls, name=EC-1, hourglass=ENHANCED, second order accuracy=YES
1., 1., 1.
*Amplitude, name=Driver10Bar
             0.,              0.,          0.0001,          0.4462, 0.00147931034482759, 0.403353179334616, 0.00285862068965517, 0.364021421197428
0.00423793103448276, 0.327938361800707, 0.00561724137931035, 0.294856876200396, 0.00699655172413793, 0.264547732713157, 0.00837586206896552, 0.236798339297337
0.0097551724137931, 0.211411575720852, 0.0111344827586207, 0.188204705748233, 0.0125137931034483, 0.167008363961625, 0.0138931034482759, 0.147665612187893
0.0152724137931034, 0.130031060837949, 0.016651724137931, 0.113970050776412, 0.0180310344827586, 0.0993578916312382, 0.0194103448275862, 0.0860791527252794
0.0207896551724138, 0.0740270030661679, 0.0221689655172414, 0.0631025970685725, 0.023548275862069, 0.0532145029048911, 0.0249275862068966, 0.0442781705878096
0.0263068965517241, 0.0362154370818443, 0.0276862068965517, 0.0289540659218805, 0.0290655172413793, 0.0224273189856682, 0.0304448275862069, 0.0165735582250075
0.0318241379310345, 0.0113358753076885, 0.0332034482758621, 0.00666174725982981, 0.0345827586206897, 0.00250271632671636
*Amplitude, name=Driver15Bar
             0.,              0.,          0.0001,          0.6066, 0.000326130653266332, 0.597255606871735, 0.000552261306532663, 0.588039538224459
0.000778391959798995, 0.578950140015279, 0.00100452261306533, 0.569985778680351, 0.00123065326633166, 0.561144840888287, 0.00145678391959799, 0.552425733296464
0.00168291457286432, 0.543826882310219, 0.00190904522613065, 0.535346733844879, 0.00213517587939699, 0.526983753090603, 0.00236130653266332, 0.518736424279999
0.00258743718592965, 0.510603250458486, 0.00281356783919598, 0.502582753257369, 0.00303969849246231, 0.494673472669594, 0.00326582914572864, 0.486873966828152
0.00349195979899498, 0.479182811787102, 0.00371809045226131, 0.471598601305186, 0.00394422110552764, 0.464119946631993, 0.00417035175879397, 0.456745476296665
0.0043964824120603, 0.449473835899089, 0.00462261306532663, 0.442303687903566, 0.00484874371859297, 0.435233711434919, 0.0050748743718593, 0.428262602077018
0.00530100502512563, 0.421389071673683, 0.00552713567839196, 0.414611848131946, 0.00575326633165829, 0.407929675227649, 0.00597939698492462, 0.401341312413332
0.00620552763819096, 0.39484553462841, 0.00643165829145729, 0.388441132111588, 0.00665778894472362, 0.382126910215507, 0.00688391959798995, 0.375901689223581
0.00711005025125628, 0.369764304169008, 0.00733618090452261, 0.363713604655925, 0.00756231155778894, 0.357748454682691, 0.00778844221105528, 0.351867732467255
0.00801457286432161, 0.346070330274603, 0.00824070351758794, 0.340355154246253, 0.00846683417085427, 0.334721124231771, 0.0086929648241206, 0.329167173622288
0.00891909547738693, 0.323692249185992, 0.00914522613065327, 0.318295310905579, 0.0093713567839196, 0.312975331817627, 0.00959748743718593, 0.307731297853887
0.00982361809045226, 0.302562207684454, 0.0100497487437186, 0.2974670725628, 0.0102758793969849, 0.292444916172661, 0.0105020100502513, 0.287494774476728
0.0107281407035176, 0.282615695567152, 0.0109542713567839, 0.277806739517819, 0.0111804020100503, 0.273066978238387, 0.0114065326633166, 0.268395495330055
0.0116326633165829, 0.263791385943056, 0.0118587939698492, 0.259253756635837, 0.0120849246231156, 0.254781725235929, 0.0123110552763819, 0.250374420702459
0.0125371859296482, 0.246030982990315, 0.0127633165829146, 0.241750562915915, 0.0129894472361809, 0.237532322024587, 0.0132155778894472, 0.233375432459526
0.0134417085427136, 0.229279076832312, 0.0136678391959799, 0.225242448094972, 0.0138939698492462, 0.221264749413574, 0.0141201005025126, 0.217345194043321
0.0143462311557789, 0.213483005205142, 0.0145723618090452, 0.209677415963749, 0.0147984924623116, 0.20592766910716, 0.0150246231155779, 0.202233017027652
0.0152507537688442, 0.198592721604139, 0.0154768844221106, 0.195006054085953, 0.0157030150753769, 0.191472294978023, 0.0159291457286432, 0.187990733927409
0.0161552763819096, 0.184560669611211, 0.0163814070351759, 0.181181409625806, 0.0166075376884422, 0.177852270377416, 0.0168336683417085, 0.174572576973979
0.0170597989949749, 0.171341663118321, 0.0172859296482412, 0.168158871002604, 0.0175120603015075, 0.165023551204031, 0.0177381909547739, 0.161935062581814
** ... 29 like lines cut
** 
** MATERIALS
** 
*Material, name=AA6016_T4
*Density
 7.85e-09,
*Elastic
70000., 0.3
*Time Points, name=TimePoints-1, GENERATE
0., 0.0001, 0.0001
0.0001, 0.002, 0.0001
** ----------------------------------------------------------------
** 
** STEP: Load
** 
*Step, name=Load, nlgeom=YES
*Dynamic, Explicit
, 0.02
*Bulk Viscosity
0.06, 1.2
** 
** BOUNDARY CONDITIONS
** 
** Name: FixedEnd Type: Symmetry/Antisymmetry/Encastre
*Boundary
ShellBoundary, ENCASTRE
** 
** LOADS
** 
** Name: Pressure   Type: Pressure
*Dsload, amplitude=<AMP>
Plate-1.LoadSurface, PNU, 1.
** 
** OUTPUT REQUESTS
** 
*Restart, write, number interval=1, time marks=NO
** 
** FIELD OUTPUT: F-Output-1
** 
*Output, field, time points=TimePoints-1
*Node Output
U, 
*Element Output, directions=YES
MISES, P, S, SDV, STATUS, TRIAX
** 
** HISTORY OUTPUT: H-Output-1
** 
*Output, history, variable=PRESELECT
*End Step
